(* <!>: ^01-78 ^02-31 ^03-11 ^04-1 ^05-1 ^10-70 ^11-1 ^12-60 ^13-6 ^14-4 ^20-0 ^21-1 ^22-1635 ^23-1 ^24-1635 ^25-1 ^*)
*.pl59.fm65.fn.pb1.ls1.lm3.tm1.bm59.rm70
*****************************************************************************
*
*		 ¡»¡À»Œ“≈ ¿ ÃŒƒ≈À≈… Œœ≈–¿÷»ŒÕÕ€’ ”—»À»“≈À≈…
*
*****************************************************************************
*
* Co‰ÂÊËÚ: UD1208
*	    140UD5  6A	6B  7  7A  7B  8  8A  8B  9  11	 17  18	 20  22	 23
*		    25	27
*	    1401UD1  2	5
*	    1408UD1
*	    1409UD1
*	    1423UD1
*	    153UD1  2  3  4  5	6
*	    154UD1A  2	3A  4A
*	    157UD1
*	    175UV4
*	    544UD1  2A
*	    551UD1A
*	    553UD1  2
*	    574UD1  2
*	    1100SK2
*
*****************************************************************************
*
* ¬ÌËÏ‡ÌËÂ! ÷ÓÍÓÎÂ‚Í‡ ‚˚‚Ó‰Ó‚ Ï‡ÍÓÏÓ‰ÂÎÂÈ ‚ÒÂı	Œ” ÌÂ ÒÓ‚Ô‡‰‡ÂÚ	Ò
*	    Â‡Î¸ÌÓÈ ‡Á‚Ó‰ÍÓÈ ÍÓÔÛÒ‡ ÏËÍÓÒıÂÏ.
*	     ÓÔÛÒ‡ ÒıÂÏ 175”¬4	, 1100— 2 Ë Ï‡ÍÓÏÓ‰ÂÎË	ËÏÂ˛Ú
*	    ÒÓ‚Ô‡‰‡˛˘Û˛	ˆÓÍÓÎÂ‚ÍÛ Á‡ ËÒÍÎ˛˜ÂÌËÂÏ ‚˚‚Ó‰‡	"ÁÂÏÎˇ".
*
*****************************************************************************
*
* K140UD20A operational amplifier "macromodel" subcircuit
* created using Parts release 4.03A on 02/28/92 at 23:08
*
* connections:   non-inverting input
*                | inverting input
*                | | positive power supply
*                | | | negative power supply
*                | | | | output
*                | | | | |
.subckt K140UD20A 1 2 3 4 5
*
  c1   11 12 2.887E-12
  c2    6  7 30.00E-12
  dc    5 53 dx
  de   54  5 dx
  dlp  90 91 dx
  dln  92 90 dx
  dp    4  3 dx
  egnd 99  0 poly(2) (3,0) (4,0) 0 .5 .5
  fb    7 99 poly(5) vb vc ve vlp vln 0 42.44E6 -40E6 40E6 40E6 -40E6
  ga    6  0 11 12 103.7E-6
  gcm   0  6 10 99 32.40E-9
  iee  10  4 dc 9.400E-6
  hlim 90  0 vlim 1K
  q1   11  2 13 qx
  q2   12  1 14 qx
  r2    6  9 100.0E3
  rc1   3 11 9.646E3
  rc2   3 12 9.646E3
  re1  13 10 3.732E3
  re2  14 10 3.732E3
  ree  10 99 21.28E6
  ro1   8  5 50
  ro2   7 99 25
  rp    3  4 10.75E3
  vb    9  0 dc 0
  vc    3 53 dc 2
  ve   54  4 dc 2
  vlim  7  8 dc 0
  vlp  91  0 dc 20
  vln   0 92 dc 20
.model dx D(Is=800.0E-18)
.model qx NPN(Is=800.0E-18 Bf=22.50)
.ends
* K140UD6A operational amplifier "macromodel" subcircuit
* created using Parts release 4.03A on 02/28/92 at 23:29
*
* connections:   non-inverting input
*                | inverting input
*                | | positive power supply
*                | | | negative power supply
*                | | | | output
*                | | | | |
.subckt K140UD6A 1 2 3 4 5
*
  c1   11 12 2.887E-12
  c2    6  7 30.00E-12
  dc    5 53 dx
  de   54  5 dx
  dlp  90 91 dx
  dln  92 90 dx
  dp    4  3 dx
  egnd 99  0 poly(2) (3,0) (4,0) 0 .5 .5
  fb    7 99 poly(5) vb vc ve vlp vln 0 12.38E6 -10E6 10E6 10E6 -10E6
  ga    6  0 11 12 188.5E-6
  gcm   0  6 10 99 18.85E-9
  iee  10  4 dc 75.06E-6
  hlim 90  0 vlim 1K
  q1   11  2 13 qx
  q2   12  1 14 qx
  r2    6  9 100.0E3
  rc1   3 11 5.305E3
  rc2   3 12 5.305E3
  re1  13 10 4.612E3
  re2  14 10 4.612E3
  ree  10 99 2.665E6
  ro1   8  5 30
  ro2   7 99 30
  rp    3  4 11.01E3
  vb    9  0 dc 0
  vc    3 53 dc 3
  ve   54  4 dc 3
  vlim  7  8 dc 0
  vlp  91  0 dc 25
  vln   0 92 dc 25
.model dx D(Is=800.0E-18)
.model qx NPN(Is=800.0E-18 Bf=1.250E3)
.ends
(* <!>: ^01-78 ^02-31 ^03-11 ^04-1 ^05-1 ^10-70 ^11-1 ^12-60 ^13-6 ^14-4 ^20-0 ^21-1 ^22-1635 ^23-1 ^24-1635 ^25-1 ^*)
*.pl59.fm65.fn.pb1.ls1.lm3.tm1.bm59.rm70
*****************************************************************************
*
*		 ÅàÅãàé'...äÄ åéÑ...ã...â éè...êÄ-àéççõï "'àãà'...ã...â
*
*****************************************************************************
*
* Co§•‡¶®‚: UD1208
*	    140UD5  6A	6B  7  7A  7B  8  8A  8B  9  11	 17  18	 20  22	 23
*		    25	27
*	    1401UD1  2	5
*	    1408UD1
*	    1409UD1
*	    1423UD1
*	    153UD1  2  3  4  5	6
*	    154UD1A  2	3A  4A
*	    157UD1
*	    175UV4
*	    544UD1  2A
*	    551UD1A
*	    553UD1  2
*	    574UD1  2
*	    1100SK2
*
*****************************************************************************
*
* Ç≠®¨ ≠®•! -(r)™(r)"•¢™  ¢Î¢(r)§(r)¢ ¨ ™‡(r)¨(r)§•"•(c) ¢·•Â	é" ≠• ·(r)¢Ø § •‚	·
*	    ‡• "Ï≠(r)(c) ‡ ß¢(r)§™(r)(c) ™(r)‡Ø„·  ¨®™‡(r)·Â•¨.
*	    ä(r)‡Ø„·  ·Â•¨ 175"Ç4	, 1100'ä2 ® ¨ ™‡(r)¨(r)§•"®	®¨•Ó‚
*	    ·(r)¢Ø § ÓÈ„Ó	Ê(r)™(r)"•¢™„ ß  ®·™"ÓÁ•≠®•¨ ¢Î¢(r)§ 	"ß•¨"Ô".
*
*****************************************************************************
*
*---------------------	UD1208 operational amplifier  ----------------------
*
* ud1208 operational amplifier "macromodel" subcircuit
* created using	Parts version 1.04 on 10/24/90 at 10:36
*
* connections:	non-inverting input
*		| inverting input
*		| | positive power supply
*		| | | negative power supply
*		| | | |	output
*		| | | |	|
.subckt	ud1208	1 2 3 4	5
*
  c1   11 12 261.9E-15
  c2	6  7 30.00E-12
  dc	5 53 dx
  de   54  5 dx
  dlp  90 91 dx
  dln  92 90 dx
  dp	4  3 dx
  egnd 99  0 poly(2) (3,0) (4,0) 0 .5 .5
  fb	7 99 poly(5) vb	vc ve vlp vln 0	212.2E6	-200E6 200E6 200E6 -200E6
  ga	6  0 11	12 18.85E-6
  gcm	0  6 10	99 6.284E-9
  iee  10  4 dc	24.10E-6
  hlim 90  0 vlim 1K
  q1   11  2 13	qx
  q2   12  1 14	qx
  r2	6  9 100.0E3
  rc1	3 11 53.05E3
  rc2	3 12 53.05E3
  re1  13 10 50.68E3
  re2  14 10 50.68E3
  ree  10 99 8.299E6
  ro1	8  5 50
  ro2	7 99 25
  rp	3  4 395.0E3
  vb	9  0 dc	0
  vc	3 53 dc	5
  ve   54  4 dc	5
  vlim	7  8 dc	0
  vlp  91  0 dc	10
  vln	0 92 dc	10
.model dx D(Is=800.0E-18)
.model qx NPN(Is=800.0E-18 Bf=240)
.ends
*----------------------
*--------------------
*
*--------------------  140UD6B operational amplifier  -----------------------
*
* connections:	non-inverting input
*		| inverting input
*		| | positive power supply
*		| | | negative power supply
*		| | | |	output
*		| | | |	|
.subckt	140UD6B	1 2 3 4	5
*
  c1   11 12 2.887E-12
  c2	6  7 20.00E-12
  dc	5 53 dx
  de   54  5 dx
  dlp  90 91 dx
  dln  92 90 dx
  dp	4  3 dx
  egnd 99  0 poly(2) (3,0) (4,0) 0 .5 .5
  fb	7 99 poly(5) vb	vc ve vlp vln 0	11.94E6	-10E6 10E6 10E6	-10E6
  ga	6  0 11	12 125.7E-6
  gcm	0  6 10	99 15.71E-9
  iee  10  4 dc	50.04E-6
  hlim 90  0 vlim 1K
  q1   11  2 13	qx
  q2   12  1 14	qx
  r2	6  9 100.0E3
  rc1	3 11 7.957E3
  rc2	3 12 7.957E3
  re1  13 10 6.917E3
  re2  14 10 6.917E3
  ree  10 99 3.997E6
  ro1	8  5 720
  ro2	7 99 30
  rp	3  4 10.91E3
  vb	9  0 dc	0
  vc	3 53 dc	3
  ve   54  4 dc	3
  vlim	7  8 dc	0
  vlp  91  0 dc	10
  vln	0 92 dc	10
.model dx D(Is=800.0E-18)
.model qx NPN(Is=800.0E-18 Bf=1.250E3)
.ends
*----------------------
*
*----------------------	 140UD7	operational amplifier  ----------------------
*
* 140ud7 operational amplifier "macromodel" subcircuit
* created using	Parts version 1.04 on 10/08/90 at 09:23
*
* connections:	non-inverting input
*		| inverting input
*		| | positive power supply
*		| | | negative power supply
*		| | | |	output
*		| | | |	|
.subckt	140ud7	1 2 3 4	5
*
  c1   11 12 2.887E-12
  c2	6  7 20.00E-12
  dc	5 53 dx
  de   54  5 dx
  dlp  90 91 dx
  dln  92 90 dx
  dp	4  3 dx
  egnd 99  0 poly(2) (3,0) (4,0) 0 .5 .5
  fb	7 99 poly(5) vb	vc ve vlp vln 0	42.44E6	-40E6 40E6 40E6	-40E6
  ga	6  0 11	12 100.5E-6
  gcm	0  6 10	99 31.79E-9
  iee  10  4 dc	14.14E-6
  hlim 90  0 vlim 1K
  q1   11  2 13	qx
  q2   12  1 14	qx
  r2	6  9 100.0E3
  rc1	3 11 9.946E3
  rc2	3 12 9.946E3
  re1  13 10 6.189E3
  re2  14 10 6.189E3
  ree  10 99 14.14E6
  ro1	8  5 50
  ro2	7 99 25
  rp	3  4 32.36E3
  vb	9  0 dc	0
  vc	3 53 dc	3
  ve   54  4 dc	3
  vlim	7  8 dc	0
  vlp  91  0 dc	20
  vln	0 92 dc	20
.model dx D(Is=800.0E-18)
.model qx NPN(Is=800.0E-18 Bf=100)
.ends
*
*--------------------
*
*--------------------  140UD7B operational amplifier  -----------------------
*
* connections:	non-inverting input
*		| inverting input
*		| | positive power supply
*		| | | negative power supply
*		| | | |	output
*		| | | |	|
.subckt	140ud7B	1 2 3 4	5
*
  c1   11 12 2.887E-12
  c2	6  7 20.00E-12
  dc	5 53 dx
  de   54  5 dx
  dlp  90 91 dx
  dln  92 90 dx
  dp	4  3 dx
  egnd 99  0 poly(2) (3,0) (4,0) 0 .5 .5
  fb	7 99 poly(5) vb	vc ve vlp vln 0	42.44E6	-40E6 40E6 40E6	-40E6
  ga	6  0 11	12 100.5E-6
  gcm	0  6 10	99 50.27E-9
  iee  10  4 dc	6.200E-6
  hlim 90  0 vlim 1K
  q1   11  2 13	qx
  q2   12  1 14	qx
  r2	6  9 100.0E3
  rc1	3 11 9.946E3
  rc2	3 12 9.946E3
  re1  13 10 1.282E3
  re2  14 10 1.282E3
  ree  10 99 32.26E6
  ro1	8  5 50
  ro2	7 99 25
  rp	3  4 10.61E3
  vb	9  0 dc	0
  vc	3 53 dc	4
  ve   54  4 dc	4
  vlim	7  8 dc	0
  vlp  91  0 dc	20
  vln	0 92 dc	20
.model dx D(Is=800.0E-18)
.model qx NPN(Is=800.0E-18 Bf=30)
.ends
*---------------------
*
*---------------------	140UD8 operational amplifier  -----------------------
*
* 140ud8 operational amplifier "macromodel" subcircuit
* created using	Parts version 1.04 on 10/05/90 at 15:22
*
* connections:	non-inverting input
*		| inverting input
*		| | positive power supply
*		| | | negative power supply
*		| | | |	output
*		| | | |	|
.subckt	140ud8	1 2 3 4	5
*
  c1   11 12 174.6E-15
  c2	6  7 20.00E-12
  dc	5 53 dx
  de   54  5 dx
  dlp  90 91 dx
  dln  92 90 dx
  dp	4  3 dx
  egnd 99  0 poly(2) (3,0) (4,0) 0 .5 .5
  fb	7 99 poly(5) vb	vc ve vlp vln 0	127.3E6	-100E6 100E6 100E6 -100E6
  ga	6  0 11	12 125.7E-6
  gcm	0  6 10	99 12.57E-9
  iss	3 10 dc	100.0E-6
  hlim 90  0 vlim 1K
  j1   11  2 10	jx
  j2   12  1 10	jx
  r2	6  9 100.0E3
  rd1	4 11 7.957E3
  rd2	4 12 7.957E3
  ro1	8  5 50
  ro2	7 99 25
  rp	3  4 18.00E3
  rss  10 99 2.000E6
  vb	9  0 dc	0
  vc	3 53 dc	2
  ve   54  4 dc	2
  vlim	7  8 dc	0
  vlp  91  0 dc	20
  vln	0 92 dc	20
.model dx D(Is=800.0E-18)
.model jx PJF(Is=10.00E-12 Beta=315.9E-6 Vto=-1)
.ends
*---------------------
*
*---------------------	140UD8A	operational amplifier  ----------------------
*
* connections:	non-inverting input
*		| inverting input
*		| | positive power supply
*		| | | negative power supply
*		| | | |	output
*		| | | |	|
.subckt	140UD8A	1 2 3 4	5
*
  c1   11 12 2.887E-12
  c2	6  7 33.00E-12
  dc	5 53 dx
  de   54  5 dx
  dlp  90 91 dx
  dln  92 90 dx
  dp	4  3 dx
  egnd 99  0 poly(2) (3,0) (4,0) 0 .5 .5
  fb	7 99 poly(5) vb	vc ve vlp vln 0	24.11E6	-20E6 20E6 20E6	-20E6
  ga	6  0 11	12 207.4E-6
  gcm	0  6 10	99 64.80E-9
  iss  10  4 dc	66.00E-6
  hlim 90  0 vlim 1K
  j1   11  2 10	jx
  j2   12  1 10	jx
  r2	6  9 100.0E3
  rd1	3 11 4.822E3
  rd2	3 12 4.822E3
  ro1	8  5 290
  ro2	7 99 10
  rp	3  4 6.000E3
  rss  10 99 3.030E6
  vb	9  0 dc	0
  vc	3 53 dc	5
  ve   54  4 dc	5
  vlim	7  8 dc	0
  vlp  91  0 dc	15
  vln	0 92 dc	15
.model dx D(Is=800.0E-18)
.model jx NJF(Is=100.0E-12 Beta=1.303E-3 Vto=-1)
.ends
*---------------------
*
*---------------------	140UD8B	operational amplifier  ----------------------
*
* connections:	non-inverting input
*		| inverting input
*		| | positive power supply
*		| | | negative power supply
*		| | | |	output
*		| | | |	|
.subckt	140UD8B	1 2 3 4	5
*
  c1   11 12 2.887E-12
  c2	6  7 33.00E-12
  dc	5 53 dx
  de   54  5 dx
  dlp  90 91 dx
  dln  92 90 dx
  dp	4  3 dx
  egnd 99  0 poly(2) (3,0) (4,0) 0 .5 .5
  fb	7 99 poly(5) vb	vc ve vlp vln 0	24.11E6	-20E6 20E6 20E6	-20E6
  ga	6  0 11	12 207.4E-6
  gcm	0  6 10	99 64.80E-9
  iss  10  4 dc	66.00E-6
  hlim 90  0 vlim 1K
  j1   11  2 10	jx
  j2   12  1 10	jx
  r2	6  9 100.0E3
  rd1	3 11 4.822E3
  rd2	3 12 4.822E3
  ro1	8  5 290
  ro2	7 99 10
  rp	3  4 6.000E3
  rss  10 99 3.030E6
  vb	9  0 dc	0
  vc	3 53 dc	5
  ve   54  4 dc	5
  vlim	7  8 dc	0
  vlp  91  0 dc	15
  vln	0 92 dc	15
.model dx D(Is=800.0E-18)
.model jx NJF(Is=100.0E-12 Beta=1.303E-3 Vto=-1)
.ends
*--------------------
*
*--------------------  140UD11 operational amplifier  -----------------------
*
* 140ud11 operational amplifier	"macromodel" subcircuit
* created using	Parts release 5.1 on 02/15/93 at 10:22
*
* connections:	non-inverting input
*		| inverting input
*		| | positive power supply
*		| | | negative power supply
*		| | | |	output
*		| | | |	|
.subckt	140ud11	1 2 3 4	5
*
  c1   11 12 2.469E-12
  c2	6  7 28.00E-12
  cee  10 99 42.00E-12
  dc	5 53 dx
  de   54  5 dx
  dlp  90 91 dx
  dln  92 90 dx
  dp	4  3 dx
  egnd 99  0 poly(2) (3,0) (4,0) 0 .5 .5
  fb	7 99 poly(5) vb	vc ve vlp vln 0	4.737E6	-5E6 5E6 5E6 -5E6
  ga	6  0 11	12 2.639E-3
  gcm	0  6 10	99 83.51E-9
  iee  10  4 dc	1.400E-3
  hlim 90  0 vlim 1K
  q1   11  2 13	qx
  q2   12  1 14	qx
  r2	6  9 100.0E3
  rc1	3 11 378.9
  rc2	3 12 378.9
  re1  13 10 341.9
  re2  14 10 341.9
  ree  10 99 142.8E3
  ro1	8  5 30
  ro2	7 99 40
  rp	3  4 4.546E3
  vb	9  0 dc	0
  vc	3 53 dc	3
  ve   54  4 dc	3
  vlim	7  8 dc	0
  vlp  91  0 dc	25
  vln	0 92 dc	25
.model dx D(Is=800.0E-18)
.model qx NPN(Is=800.0E-18 Bf=2.800E3)
.ends
*---------------------
*
*---------------------	140UD12	operational amplifier  ----------------------
*
* connections:	non-inverting input
*		| inverting input
*		| | positive power supply
*		| | | negative power supply
*		| | | |	output
*		| | | |	|
.subckt	140UD12	1 2 3 4	5
*
  c1   11 12 2.887E-12
  c2	6  7 20.00E-12
  dc	5 53 dx
  de   54  5 dx
  dlp  90 91 dx
  dln  92 90 dx
  dp	4  3 dx
  egnd 99  0 poly(2) (3,0) (4,0) 0 .5 .5
  fb	7 99 poly(5) vb	vc ve vlp vln 0	29.84E6	-30E6 30E6 30E6	-30E6
  ga	6  0 11	12 125.7E-6
  gcm	0  6 10	99 39.27E-9
  iee  10  4 dc	16.80E-6
  hlim 90  0 vlim 1K
  q1   11  2 13	qx
  q2   12  1 14	qx
  r2	6  9 100.0E3
  rc1	3 11 7.957E3
  rc2	3 12 7.957E3
  re1  13 10 4.499E3
  re2  14 10 4.499E3
  ree  10 99 11.90E6
  ro1	8  5 810
  ro2	7 99 40
  rp	3  4 50.00E6
  vb	9  0 dc	0
  vc	3 53 dc	5
  ve   54  4 dc	5
  vlim	7  8 dc	0
  vlp  91  0 dc	10
  vln	0 92 dc	10
.model dx D(Is=800.0E-18)
.model qx NPN(Is=800.0E-18 Bf=20)
.ends
*---------------------
*
*---------------------	140UD17	operational amplifier  ----------------------
*
* 140ud17 operational amplifier	"macromodel" subcircuit
* created using	Parts release 5.1 on 02/15/93 at 11:02
* (≠• „Á‚•≠(r) ß≠ Á•≠®• ¢‚(r)‡(r)£(r) Ø(r)"Ó· )
*
* connections:	non-inverting input
*		| inverting input
*		| | positive power supply
*		| | | negative power supply
*		| | | |	output
*		| | | |	|
.subckt	140ud17	1 2 3 4	5
*
  c1   11 12 2.887E-12
  c2	6  7 30.00E-12
  dc	5 53 dx
  de   54  5 dx
  dlp  90 91 dx
  dln  92 90 dx
  dp	4  3 dx
  egnd 99  0 poly(2) (3,0) (4,0) 0 .5 .5
  fb	7 99 poly(5) vb	vc ve vlp vln 0	29.47E6	-30E6 30E6 30E6	-30E6
  ga	6  0 11	12 113.1E-6
  gcm	0  6 10	99 56.55E-12
  iss  10  4 dc	75.00E-6
  hlim 90  0 vlim 1K
  j1   11  2 10	jx
  j2   12  1 10	jx
  r2	6  9 100.0E3
  rd1	3 11 8.842E3
  rd2	3 12 8.842E3
  ro1	8  5 70
  ro2	7 99 60
  rp	3  4 6.000E3
  rss  10 99 2.667E6
  vb	9  0 dc	0
  vc	3 53 dc	5
  ve   54  4 dc	5
  vlim	7  8 dc	0
  vlp  91  0 dc	6
  vln	0 92 dc	6
.model dx D(Is=800.0E-18)
.model jx NJF(Is=1.900E-9 Beta=170.5E-6	Vto=-1)
.ends
*----------------------
*
*----------------------	 140UD18 operational amplifier	---------------------
*
* 140ud18 operational amplifier	"macromodel" subcircuit
* created using	Parts version 1.04 on 10/24/90 at 08:55
*
* connections:	non-inverting input
*		| inverting input
*		| | positive power supply
*		| | | negative power supply
*		| | | |	output
*		| | | |	|
.subckt	140ud18	1 2 3 4	5
*
  c1   11 12 174.6E-15
  c2	6  7 20.00E-12
  dc	5 53 dx
  de   54  5 dx
  dlp  90 91 dx
  dln  92 90 dx
  dp	4  3 dx
  egnd 99  0 poly(2) (3,0) (4,0) 0 .5 .5
  fb	7 99 poly(5) vb	vc ve vlp vln 0	53.05E6	-50E6 50E6 50E6	-50E6
  ga	6  0 11	12 37.70E-6
  gcm	0  6 10	99 2.120E-9
  iss	3 10 dc	40.00E-6
  hlim 90  0 vlim 1K
  j1   11  2 10	jx
  j2   12  1 10	jx
  r2	6  9 100.0E3
  rd1	4 11 26.52E3
  rd2	4 12 26.52E3
  ro1	8  5 50
  ro2	7 99 25
  rp	3  4 15.00E3
  rss  10 99 5.000E6
  vb	9  0 dc	0
  vc	3 53 dc	2
  ve   54  4 dc	2
  vlim	7  8 dc	0
  vlp  91  0 dc	7.500
  vln	0 92 dc	7.500
.model dx D(Is=800.0E-18)
.model jx PJF(Is=500.0E-12 Beta=71.08E-6 Vto=-1)
.ends
*----------------------
*
*----------------------	 140UD23 operational amplifier	---------------------
*
* connections:	non-inverting input
*		| inverting input
*		| | positive power supply
*		| | | negative power supply
*		| | | |	output
*		| | | |	|
.subckt	140UD23	1 2 3 4	5
*
  c1   11 12 2.887E-12
  c2	6  7 30.00E-12
  dc	5 53 dx
  de   54  5 dx
  dlp  90 91 dx
  dln  92 90 dx
  dp	4  3 dx
  egnd 99  0 poly(2) (3,0) (4,0) 0 .5 .5
  fb	7 99 poly(5) vb	vc ve vlp vln 0	2.122E6	-2E6 2E6 2E6 -2E6
  ga	6  0 11	12 942.6E-6
  gcm	0  6 10	99 377.0E-9
  iee  10  4 dc	900.2E-6
  hlim 90  0 vlim 1K
  q1   11  2 13	qx
  q2   12  1 14	qx
  r2	6  9 100.0E3
  rc1	3 11 1.061E3
  rc2	3 12 1.061E3
  re1  13 10 1.003E3
  re2  14 10 1.003E3
  ree  10 99 222.2E3
  ro1	8  5 125
  ro2	7 99 25
  rp	3  4 4.918E3
  vb	9  0 dc	0
  vc	3 53 dc	5
  ve   54  4 dc	5
  vlim	7  8 dc	0
  vlp  91  0 dc	10
  vln	0 92 dc	10
.model dx D(Is=800.0E-18)
.model qx NPN(Is=800.0E-18 Bf=4.500E3)
.ends
*---------------------
*
*---------------------	140UD25A operational amplifier	---------------------
*
* 140ud25a operational amplifier "macromodel" subcircuit
* created using	Parts release 5.1 on 02/15/93 at 13:58
*
* connections:	 non-inverting input
*		 | inverting input
*		 | | positive power supply
*		 | | | negative	power supply
*		 | | | | output
*		 | | | | |
.subckt	140ud25a 1 2 3 4 5
*
  c1   11 12 27.30E-12
  c2	6  7 150.0E-12
  dc	5 53 dx
  de   54  5 dx
  dlp  90 91 dx
  dln  92 90 dx
  dp	4  3 dx
  egnd 99  0 poly(2) (3,0) (4,0) 0 .5 .5
  fb	7 99 poly(5) vb	vc ve vlp vln 0	11.32E6	-10E6 10E6 10E6	-10E6
  ga	6  0 11	12 4.712E-3
  gcm	0  6 10	99 14.73E-9
  iee  10  4 dc	255.1E-6
  hlim 90  0 vlim 1K
  q1   11  2 13	qx
  q2   12  1 14	qx
  r2	6  9 100.0E3
  rc1	3 11 212.2
  rc2	3 12 212.2
  re1  13 10 9.347
  re2  14 10 9.347
  ree  10 99 784.1E3
  ro1	8  5 35
  ro2	7 99 15
  rp	3  4 12.44E3
  vb	9  0 dc	0
  vc	3 53 dc	3
  ve   54  4 dc	3
  vlim	7  8 dc	0
  vlp  91  0 dc	6
  vln	0 92 dc	6
.model dx D(Is=800.0E-18)
.model qx NPN(Is=800.0E-18 Bf=3.188E3)
.ends
*----------------------
*
*----------------------	 140UD27 operational amplifier	---------------------
*
* connections:	non-inverting input
*		| inverting input
*		| | positive power supply
*		| | | negative power supply
*		| | | |	output
*		| | | |	|
.subckt	140ud27	1 2 3 4	5
*
  c1   11 12 5.460E-12
  c2	6  7 30.00E-12
  dc	5 53 dx
  de   54  5 dx
  dlp  90 91 dx
  dln  92 90 dx
  dp	4  3 dx
  egnd 99  0 poly(2) (3,0) (4,0) 0 .5 .5
  fb	7 99 poly(5) vb	vc ve vlp vln 0	39.78E6	-40E6 40E6 40E6	-40E6
  ga	6  0 11	12 1.508E-3
  gcm	0  6 10	99 755.9E-12
  iee  10  4 dc	84.02E-6
  hlim 90  0 vlim 1K
  q1   11  2 13	qx
  q2   12  1 14	qx
  r2	6  9 100.0E3
  rc1	3 11 663.1
  rc2	3 12 663.1
  re1  13 10 47.24
  re2  14 10 47.24
  ree  10 99 2.380E6
  ro1	8  5 40
  ro2	7 99 30
  rp	3  4 9.233E3
  vb	9  0 dc	0
  vc	3 53 dc	1.200
  ve   54  4 dc	1.200
  vlim	7  8 dc	0
  vlp  91  0 dc	40
  vln	0 92 dc	40
.model dx D(Is=800.0E-18 Rs=1)
.model qx NPN(Is=800.0E-18 Bf=4.200E3)
.ends
*----------------------
*
*----------------------	 1401UD5 operational amplifier	---------------------
*
* connections:	 non-inverting input
*		 | inverting input
*		 | | positive power supply
*		 | | | negative	power supply
*		 | | | | output
*		 | | | | |
.subckt	1401ud5	 1 2 3 4 5
*
  c1   11 12 2.887E-12
  c2	6  7 30.00E-12
  dc	5 53 dx
  de   54  5 dx
  dlp  90 91 dx
  dln  92 90 dx
  dp	4  3 dx
  egnd 99  0 poly(2) (3,0) (4,0) 0 .5 .5
  fb	7 99 poly(5) vb	vc ve vlp vln 0	21.22E6	-20E6 20E6 20E6	-20E6
  ga	6  0 11	12 188.5E-6
  gcm	0  6 10	99 59.61E-9
  iee	3 10 dc	15.09E-6
  hlim 90  0 vlim 1K
  q1   11  2 13	qx
  q2   12  1 14	qx
  r2	6  9 100.0E3
  rc1	4 11 5.305E3
  rc2	4 12 5.305E3
  re1  13 10 1.845E3
  re2  14 10 1.845E3
  ree  10 99 13.25E6
  ro1	8  5 50
  ro2	7 99 25
  rp	3  4 9.082E3
  vb	9  0 dc	0
  vc	3 53 dc	1.500
  ve   54  4 dc	0
  vlim	7  8 dc	0
  vlp  91  0 dc	40
  vln	0 92 dc	40
.model dx D(Is=800.0E-18 Rs=1)
.model qx PNP(Is=800.0E-18 Bf=166.7)
.ends
*---------------------
*
*---------------------	1408UD1	operational amplifier  ----------------------
*
* connections:	non-inverting input
*		| inverting input
*		| | positive power supply
*		| | | negative power supply
*		| | | |	output
*		| | | |	|
.subckt	1408UD1	1 2 3 4	5
*
  c1   11 12 2.887E-12
  c2	6  7 30.00E-12
  dc	5 53 dx
  de   54  5 dx
  dlp  90 91 dx
  dln  92 90 dx
  dp	4  3 dx
  egnd 99  0 poly(2) (3,0) (4,0) 0 .5 .5
  fb	7 99 poly(5) vb	vc ve vlp vln 0	29.71E6	-30E6 30E6 30E6	-30E6
  ga	6  0 11	12 94.26E-6
  gcm	0  6 10	99 29.46E-9
  iee  10  4 dc	45.20E-6
  hlim 90  0 vlim 1K
  q1   11  2 13	qx
  q2   12  1 14	qx
  r2	6  9 100.0E3
  rc1	3 11 10.61E3
  rc2	3 12 10.61E3
  re1  13 10 9.418E3
  re2  14 10 9.418E3
  ree  10 99 4.425E6
  ro1	8  5 50
  ro2	7 99 25
  rp	3  4 17.72E3
  vb	9  0 dc	0
  vc	3 53 dc	8
  ve   54  4 dc	8
  vlim	7  8 dc	0
  vlp  91  0 dc	100
  vln	0 92 dc	100
.model dx D(Is=800.0E-18)
.model qx NPN(Is=800.0E-18 Bf=225)
.ends
*---------------------
*
*---------------------	1423UD1	operational amplifier  ----------------------
*
* 1423ud1 operational amplifier	"macromodel" subcircuit
* created using	Parts version 1.04 on 10/24/90 at 10:26
*
* connections:	non-inverting input
*		| inverting input
*		| | positive power supply
*		| | | negative power supply
*		| | | |	output
*		| | | |	|
.subckt	1423ud1	1 2 3 4	5
*
  c1   11 12 261.9E-15
  c2	6  7 30.00E-12
  dc	5 53 dx
  de   54  5 dx
  dlp  90 91 dx
  dln  92 90 dx
  dp	4  3 dx
  egnd 99  0 poly(2) (3,0) (4,0) 0 .5 .5
  fb	7 99 poly(5) vb	vc ve vlp vln 0	1.516E6	-2E6 2E6 2E6 -2E6
  ga	6  0 11	12 263.9E-6
  gcm	0  6 10	99 87.97E-9
  iee  10  4 dc	4.800E-6
  hlim 90  0 vlim 1K
  q1   11  2 13	qx
  q2   12  1 14	qx
  r2	6  9 100.0E3
  rc1	3 11 3.789E3
  rc2	3 12 3.789E3
  re1  13 10 -6.988E3
  re2  14 10 -6.988E3
  ree  10 99 41.67E6
  ro1	8  5 50
  ro2	7 99 25
  rp	3  4 32.31E3
  vb	9  0 dc	0
  vc	3 53 dc	.8
  ve   54  4 dc	.8
  vlim	7  8 dc	0
  vlp  91  0 dc	5
  vln	0 92 dc	5
.model dx D(Is=800.0E-18)
.model qx NPN(Is=800.0E-18 Bf=2.400E6)
.ends
*---------------------
*
*---------------------	154UD1 operational amplifier  -----------------------
*
* 154ud1a operational amplifier	"macromodel" subcircuit
* created using	Parts release 5.1 on 02/15/93 at 15:23
*
* connections:	non-inverting input
*		| inverting input
*		| | positive power supply
*		| | | negative power supply
*		| | | |	output
*		| | | |	|
.subckt	154ud1a	1 2 3 4	5
*
  c1   11 12 6.995E-12
  c2	6  7 30.00E-12
  dc	5 53 dx
  de   54  5 dx
  dlp  90 91 dx
  dln  92 90 dx
  dp	4  3 dx
  egnd 99  0 poly(2) (3,0) (4,0) 0 .5 .5
  fb	7 99 poly(5) vb	vc ve vlp vln 0	31.83E6	-30E6 30E6 30E6	-30E6
  ga	6  0 11	12 188.5E-6
  gcm	0  6 10	99 9.425E-9
  iee	3 10 dc	300.0E-6
  hlim 90  0 vlim 1K
  q1   11  2 13	qx
  q2   12  1 14	qx
  r2	6  9 100.0E3
  rc1	4 11 5.305E3
  rc2	4 12 5.305E3
  re1  13 10 5.132E3
  re2  14 10 5.132E3
  ree  10 99 666.6E3
  ro1	8  5 50
  ro2	7 99 25
  rp	3  4 13.64E3
  vb	9  0 dc	0
  vc	3 53 dc	4
  ve   54  4 dc	4
  vlim	7  8 dc	0
  vlp  91  0 dc	7.500
  vln	0 92 dc	7.500
.model dx D(Is=800.0E-18)
.model qx PNP(Is=800.0E-18 Bf=7.500E3)
.ends
*---------------------
*
*---------------------	154UD2 operational amplifier  -----------------------
*
* connections:	non-inverting input
*		| inverting input
*		| | positive power supply
*		| | | negative power supply
*		| | | |	output
*		| | | |	|
.subckt	154UD2	1 2 3 4	5
*
  c1   11 12 2.887E-12
  c2	6  7 30.00E-12
  dc	5 53 dx
  de   54  5 dx
  dlp  90 91 dx
  dln  92 90 dx
  dp	4  3 dx
  egnd 99  0 poly(2) (3,0) (4,0) 0 .5 .5
  fb	7 99 poly(5) vb	vc ve vlp vln 0	28.29E3	-30E3 30E3 30E3	-30E3
  ga	6  0 11	12 4.713E-3
  gcm	0  6 10	99 523.7E-9
  iee  10  4 dc	600.0E-6
  hlim 90  0 vlim 1K
  q1   11  2 13	qx
  q2   12  1 14	qx
  r2	6  9 100.0E3
  rc1	3 11 212.2
  rc2	3 12 212.2
  re1  13 10 126
  re2  14 10 126
  ree  10 99 333.3E3
  ro1	8  5 50
  ro2	7 99 25
  rp	3  4 4.688E3
  vb	9  0 dc	0
  vc	3 53 dc	6
  ve   54  4 dc	6
  vlim	7  8 dc	0
  vlp  91  0 dc	20
  vln	0 92 dc	20
.model dx D(Is=800.0E-18)
.model qx NPN(Is=800.0E-18 Bf=30.00E3)
.ends
*-------------------
*
*--------------------  154UD3A operational amplifier  -----------------------
*
* 154UD3a operational amplifier	"macromodel" subcircuit
* created using	Parts release 5.1 on 12/17/92 at 02:30
*
* connections:	 non-inverting input
*		 | inverting input
*		 | | positive power supply
*		 | | | negative	power supply
*		 | | | | output
*		 | | | | |
.subckt	154UD3A	 1 2 3 4 5
*
  c1   11 12 8.660E-12
  c2	6  7 20pF
  dc	5 53 dx
  de   54  5 dx
  dlp  90 91 dx
  dln  92 90 dx
  dp	4  3 dx
  egnd 99  0 poly(2) (3,0) (4,0) 0 .5 .5
  fb	7 99 poly(5) vb	vc ve vlp vln 0	339.5E3	-30E3 30E3 30E3	-30E3
  ga	6  0 11	12 942.5E-6
  gcm	0  6 10	99 74.80E-9
  iee  10  4 dc	800.5E-6
  hlim 90  0 vlim 1K
  q1   11  2 13	qx
  q2   12  1 14	qx
  r2	6  9 100.0E3
  rc1	3 11 1.061E3
  rc2	3 12 1.061E3
  re1  13 10 995.8
  re2  14 10 995.8
  ree  10 99 249.9E3
  ro1	8  5 50
  ro2	7 99 25
  rp	3  4 4.839E3
  vb	9  0 dc	0
  vc	3 53 dc	5.500
  ve   54  4 dc	5.500
  vlim	7  8 dc	0
  vlp  91  0 dc	10
  vln	0 92 dc	10
.model dx D(Is=800.0E-18)
.model qx NPN(Is=800.0E-18 Bf=1.778E3)
.ends
*---------------------
*
*---------------------	154UD4A	operational amplifier  ----------------------
*
* connections:	non-inverting input
*		| inverting input
*		| | positive power supply
*		| | | negative power supply
*		| | | |	output
*		| | | |	|  compensation
*		| | | |	| / \
.subckt	154UD4A	1 2 3 4	5 6 7
*
  c1   11 12 2.645E-12
  dc	5 53 dx
  de   54  5 dx
  dlp  90 91 dx
  dln  92 90 dx
  dp	4  3 dx
  egnd 99  0 poly(2) (3,0) (4,0) 0 .5 .5
  fb	7 99 poly(5) vb	vc ve vlp vln 0	42.44E6	-40E6 40E6 40E6	-40E6
  ga	6  0 11	12 18.85E-3
  gcm	0  6 10	99 6.284E-6
  iee  10  4 dc	9.000E-3
  hlim 90  0 vlim 1K
  q1   11  2 13	qx
  q2   12  1 14	qx
  r2	6  9 100.0E3
  rc1	3 11 53.05
  rc2	3 12 53.05
  re1  13 10 47.30
  re2  14 10 47.30
  ree  10 99 22.22E3
  ro1	8  5 50
  ro2	7 99 25
  rp	3  4 15.00E3
  vb	9  0 dc	0
  vc	3 53 dc	5
  ve   54  4 dc	5
  vlim	7  8 dc	0
  vlp  91  0 dc	15
  vln	0 92 dc	15
.model dx D(Is=800.0E-18)
.model qx NPN(Is=800.0E-18 Bf=45.00E3)
.ends
*----------------------
*
*----------------------	 157UD1	operational amplifier  ----------------------
*
* 157ud1 operational amplifier "macromodel" subcircuit
* created using	Parts version 1.04 on 10/24/90 at 10:52
*
* connections:	non-inverting input
*		| inverting input
*		| | positive power supply
*		| | | negative power supply
*		| | | |	output
*		| | | |	|  compensation
*		| | | |	| / \
.subckt	157ud1	1 2 3 4	5 6 7
*
  c1   11 12 261.9E-15
  dc	5 53 dx
  de   54  5 dx
  dlp  90 91 dx
  dln  92 90 dx
  dp	4  3 dx
  egnd 99  0 poly(2) (3,0) (4,0) 0 .5 .5
  fb	7 99 poly(5) vb	vc ve vlp vln 0	21.22E6	-20E6 20E6 20E6	-20E6
  ga	6  0 11	12 94.26E-6
  gcm	0  6 10	99 31.42E-9
  iee  10  4 dc	16.00E-6
  hlim 90  0 vlim 1K
  q1   11  2 13	qx
  q2   12  1 14	qx
  r2	6  9 100.0E3
  rc1	3 11 10.61E3
  rc2	3 12 10.61E3
  re1  13 10 6.713E3
  re2  14 10 6.713E3
  ree  10 99 12.50E6
  ro1	8  5 50
  ro2	7 99 25
  rp	3  4 6.690E3
  vb	9  0 dc	0
  vc	3 53 dc	3
  ve   54  4 dc	3
  vlim	7  8 dc	0
  vlp  91  0 dc	1.000E3
  vln	0 92 dc	1.000E3
.model dx D(Is=800.0E-18)
.model qx NPN(Is=800.0E-18 Bf=15)
.ends
*---------------------
*
*---------------------	544UD1 operational amplifier  -----------------------
*
* connections:	non-inverting input
*		| inverting input
*		| | positive power supply
*		| | | negative power supply
*		| | | |	output
*		| | | |	|
.subckt	544UD1	1 2 3 4	5
*
  c1   11 12 2.887E-12
  c2	6  7 10.00E-12
  dc	5 53 dx
  de   54  5 dx
  dlp  90 91 dx
  dln  92 90 dx
  dp	4  3 dx
  egnd 99  0 poly(2) (3,0) (4,0) 0 .5 .5
  fb	7 99 poly(5) vb	vc ve vlp vln 0	39.78E6	-40E6 40E6 40E6	-40E6
  ga	6  0 11	12 62.84E-6
  gcm	0  6 10	99 41.89E-9
  iss	3 10 dc	20.00E-6
  hlim 90  0 vlim 1K
  j1   11  2 10	jx
  j2   12  1 10	jx
  r2	6  9 100.0E3
  rd1	4 11 15.91E3
  rd2	4 12 15.91E3
  ro1	8  5 100
  ro2	7 99 20
  rp	3  4 9.000E3
  rss  10 99 10.00E6
  vb	9  0 dc	0
  vc	3 53 dc	5
  ve   54  4 dc	5
  vlim	7  8 dc	0
  vlp  91  0 dc	15
  vln	0 92 dc	15
.model dx D(Is=800.0E-18)
.model jx PJF(Is=15.00E-12 Beta=394.9E-6 Vto=-1)
.ends
*---------------------
*
*---------------------	544UD2A	operational amplifier  ----------------------
*
* 544ud2a operational amplifier	"macromodel" subcircuit
* created using	Parts release 5.1 on 02/11/93 at 10:25
*
* connections:	non-inverting input
*		| inverting input
*		| | positive power supply
*		| | | negative power supply
*		| | | |	output
*		| | | |	|
.subckt	544ud2a	1 2 3 4	5
*
  c1   11 12 2.99E-12
  c2	6  7 15.00E-12
  dc	5 53 dx
  de   54  5 dx
  dlp  90 91 dx
  dln  92 90 dx
  dp	4  3 dx
  egnd 99  0 poly(2) (3,0) (4,0) 0 .5 .5
  fb	7 99 poly(5) vb	vc ve vlp vln 0	353.7E3	-40E3 40E3 40E3	-40E3
  ga	6  0 11	12 2.827E-3
  gcm	0  6 10	99 80.78E-9
  iss  10  4 dc	300.0E-6
  hlim 90  0 vlim 1K
  j1   11  2 10	jx
  j2   12  1 10	jx
  r2	6  9 100.0E3
  rd1	3 11 353.7
  rd2	3 12 353.7
  ro1	8  5 25
  ro2	7 99 25
  rp	3  4 4.286E3
  rss  10 99 666.7E3
  vb	9  0 dc	0
  vc	3 53 dc	5
  ve   54  4 dc	5
  vlim	7  8 dc	0
  vlp  91  0 dc	15
  vln	0 92 dc	15
.model dx D(Is=800.0E-18)
.model jx NJF(Is=15.00E-12 Beta=26.65E-3 Vto=-1)
.ends
*----------------------
*
*----------------------	 574UD1	operational amplifier  ----------------------
*
* connections:	non-inverting input
*		| inverting input
*		| | positive power supply
*		| | | negative power supply
*		| | | |	output
*		| | | |	|
.subckt	574UD1	1 2 3 4	5
*
  c1   11 12 2.887E-12
  c2	6  7 10.00E-12
  dc	5 53 dx
  de   54  5 dx
  dlp  90 91 dx
  dln  92 90 dx
  dp	4  3 dx
  egnd 99  0 poly(2) (3,0) (4,0) 0 .5 .5
  fb	7 99 poly(5) vb	vc ve vlp vln 0	1.989E6	-2E6 2E6 2E6 -2E6
  ga	6  0 11	12 628.4E-6
  gcm	0  6 10	99 523.7E-9
  iss  10  4 dc	500.0E-6
  hlim 90  0 vlim 1K
  j1   11  2 10	jx
  j2   12  1 10	jx
  r2	6  9 100.0E3
  rd1	3 11 1.591E3
  rd2	3 12 1.591E3
  ro1	8  5 210
  ro2	7 99 40
  rp	3  4 3.750E3
  rss  10 99 400.0E3
  vb	9  0 dc	0
  vc	3 53 dc	5
  ve   54  4 dc	5
  vlim	7  8 dc	0
  vlp  91  0 dc	10
  vln	0 92 dc	10
.model dx D(Is=800.0E-18)
.model jx NJF(Is=15.00E-12 Beta=1.580E-3 Vto=-1)
.ends
