*****
* DIODE.LIB Spectrum Software Bill Steele
*****
*** Low Leakage Diode
.MODEL 1N456 D (IS=29.054902p N=1.42535 BV=30 IBV=100.000001p RS=910.705882m
+ TT=5u CJO=4.505247p VJ=700m M=385.099444m RL=125.01816MEG)
*** Low Leakage Diode
.MODEL 1N456A D (IS=29.054457p N=1.425349 BV=30 IBV=100.000001p RS=910.708069m
+ TT=5u CJO=4.505247p VJ=700m M=385.099444m RL=125.01816MEG)
*** Low Leakage Diode
.MODEL 1N457 D (IS=29.059853p N=1.425365 BV=70 IBV=100.000001p RS=910.682867m
+ TT=5u CJO=4.505242p VJ=700m M=385.098778m RL=125.018164MEG)
*** Low Leakage Diode
.MODEL 1N457A D (IS=29.055332p N=1.425351 BV=70 IBV=100.000001p RS=910.703876m
+ TT=5u CJO=4.505242p VJ=700m M=385.098778m RL=125.018161MEG)
*** Low Leakage Diode
.MODEL 1N458 D (IS=29.054902p N=1.42535 BV=150 IBV=100.000001p RS=910.705882m
+ TT=5u CJO=4.505242p VJ=700m M=385.098778m RL=125.01816MEG)
*** Low Leakage Diode
.MODEL 1N458A D (IS=29.055743p N=1.425352 BV=150 IBV=100.000001p RS=910.701964m
+ TT=5u CJO=4.505242p VJ=700m M=385.098778m RL=125.018161MEG)
*** Low Leakage Diode
.MODEL 1N459 D (IS=29.057842p N=1.425359 BV=200 IBV=100.000001p RS=910.692219m
+ TT=5u CJO=4.505242p VJ=700m M=385.098778m RL=125.018162MEG)
*** Low Leakage Diode
.MODEL 1N459A D (IS=29.057842p N=1.425359 BV=200 IBV=100.000001p RS=910.692219m
+ TT=5u CJO=4.505242p VJ=700m M=385.098778m RL=125.018162MEG)
*** Low Leakage Diode
.MODEL 1N461A D (IS=29.056867p N=1.425356 BV=30 IBV=100.000001p RS=910.69675m
+ TT=5u CJO=4.505242p VJ=700m M=385.098778m RL=125.018162MEG)
*** Low Leakage Diode
.MODEL 1N462A D (IS=29.057842p N=1.425359 BV=70 IBV=100.000001p RS=910.692219m
+ TT=5u CJO=4.505242p VJ=700m M=385.098778m RL=125.018162MEG)
*** Low Leakage Diode
.MODEL 1N463A D (IS=29.058416p N=1.42536 BV=200 IBV=100.000001p RS=910.689548m
+ TT=5u CJO=4.505242p VJ=700m M=385.098778m RL=125.018163MEG)
*** Low Leakage Diode
.MODEL 1N482B D (IS=29.057842p N=1.425359 BV=40 IBV=100.000001p RS=910.692219m
+ TT=5u CJO=4.505242p VJ=700m M=385.098778m RL=125.018162MEG)
*** Low Leakage Diode
.MODEL 1N483B D (IS=29.056136p N=1.425354 BV=80 IBV=100.000001p RS=910.700151m
+ TT=5u CJO=4.505242p VJ=700m M=385.098778m RL=125.018161MEG)
*** Low Leakage Diode
.MODEL 1N484B D (IS=29.056867p N=1.425356 BV=150 IBV=100.000001p RS=910.69675m
+ TT=5u CJO=4.505242p VJ=700m M=385.098778m RL=125.018162MEG)
*** Low Leakage Diode
.MODEL 1N485B D (IS=29.057531p N=1.425358 BV=200 IBV=100.000001p RS=910.693655m
+ TT=5u CJO=4.505242p VJ=700m M=385.098778m RL=125.018162MEG)
*** High Voltage Diode
.MODEL 1N625 D (IS=4.779715n N=1.77574 BV=30 IBV=100.000001p RS=869.749722m
+ TT=1.442695u CJO=1.73058p VJ=14.999651 M=816.137774m RL=1.915604G)
*** High Voltage Diode
.MODEL 1N626 D (IS=4.779844n N=1.775744 BV=50 IBV=100.000001p RS=869.743314m
+ TT=1.442695u CJO=1.73058p VJ=14.999651 M=816.137774m RL=1.915652G)
*** High Voltage Diode
.MODEL 1N627 D (IS=4.780051n N=1.775751 BV=100 IBV=100.000001p RS=869.733075m
+ TT=1.442695u CJO=1.73058p VJ=14.999651 M=816.137774m RL=1.915728G)
*** High Voltage Diodes
.MODEL 1N628 D (IS=3.843297n N=1.961094 BV=150 IBV=100.000001p RS=337.628869m
+ TT=1.442695u CJO=1.560231p VJ=4.653292 M=300m RL=17.290516G)
*** High Voltage Diodes
.MODEL 1N629 D (IS=3.843297n N=1.961094 BV=200 IBV=100.000001p RS=337.628869m
+ TT=1.442695u CJO=1.560231p VJ=4.653292 M=300m RL=17.290516G)
*** High Voltage Diodes
.MODEL 1N658 D (IS=3.843297n N=1.961094 BV=120 IBV=100.000001p RS=337.628869m
+ TT=432.808528n CJO=1.560231p VJ=4.653292 M=300m RL=17.290516G)
*** High Voltage Diode
.MODEL 1N659 D (IS=4.780051n N=1.775751 BV=60 IBV=100.000001p RS=869.733075m
+ TT=432.808528n CJO=1.73058p VJ=14.999651 M=816.137774m RL=1.915728G)
*** High Voltage Diodes
.MODEL 1N660 D (IS=3.843297n N=1.961094 BV=120 IBV=100.000001p RS=337.628869m
+ TT=432.808528n CJO=1.560231p VJ=4.653292 M=300m RL=17.290516G)
*** High Voltage Diodes
.MODEL 1N661 D (IS=3.843297n N=1.961094 BV=240 IBV=100.000001p RS=337.628869m
+ TT=432.808528n CJO=1.560231p VJ=4.653292 M=300m RL=17.290516G)
*** General Purpose
.MODEL 1N914 D (IS=7n N=1.812334 BV=100 IBV=100.000001p RS=1.809789
+ TT=11.54156n CJO=1.583732p VJ=12.627892 M=300m RL=3.896104G)
*** High Voltage Diode
.MODEL 1N914A D (IS=4.779663n N=1.775739 BV=100 IBV=100.000001p RS=869.752264m
+ TT=11.54156n CJO=1.73058p VJ=14.999651 M=816.137774m RL=1.236379G)
*** High Voltage Diode
.MODEL 1N914B D (IS=4.779786n N=1.775743 BV=100 IBV=100.000001p RS=869.746177m
+ TT=11.54156n CJO=1.73058p VJ=14.999651 M=816.137774m RL=1.236387G)
*** High Voltage Diode
.MODEL 1N916 D (IS=4.779755n N=1.775742 BV=100 IBV=100.000001p RS=869.747707m
+ TT=8.952928n CJO=1.73058p VJ=14.999651 M=816.137774m RL=1.915619G)
*** High Voltage Diode
.MODEL 1N916A D (IS=4.779765n N=1.775742 BV=100 IBV=100.000001p RS=869.747239m
+ TT=8.952928n CJO=1.73058p VJ=14.999651 M=816.137774m RL=1.915622G)
*** High Voltage Diode
.MODEL 1N916B D (IS=4.779813n N=1.775743 BV=100 IBV=100.000001p RS=869.744875m
+ TT=8.952928n CJO=1.73058p VJ=14.999651 M=816.137774m RL=1.91564G)
*** Medium current silicon rectifier
.MODEL 1N3491 D (IS=9.131611p N=1.232839 BV=50 IBV=100.000001p RS=4.220387m
+ TT=6.035286u CJO=1.663921n VJ=700m M=1.022738 RL=49.999969K)
*** Medium current silicon rectifier
.MODEL 1N3492 D (IS=9.126274p N=1.232811 BV=100 IBV=100.000001p RS=4.220413m
+ TT=6.035286u CJO=1.663921n VJ=700m M=1.022738 RL=99.999995K)
*** Medium current silicon rectifier
.MODEL 1N3493 D (IS=9.127609p N=1.232818 BV=200 IBV=100.000001p RS=4.220406m
+ TT=6.035286u CJO=1.663921n VJ=700m M=1.022738 RL=200.000016K)
*** Medium current silicon rectifier
.MODEL 1N3494 D (IS=9.130287p N=1.232832 BV=300 IBV=100.000001p RS=4.220393m
+ TT=6.035286u CJO=1.663921n VJ=700m M=1.022738 RL=299.999986K)
*** Medium current silicon rectifier
.MODEL 1N3495 D (IS=9.127866p N=1.232819 BV=400 IBV=100.000001p RS=4.220405m
+ TT=6.035286u CJO=1.663921n VJ=700m M=1.022738 RL=399.999981K)
*** Generic Diode
.MODEL 1N3600 D (IS=4.555609n N=1.845129 BV=75 IBV=100.000001p RS=790.820157m
+ TT=5.77078n CJO=914.447358f VJ=100 M=1.29577 RL=1.591986G)
*** Fast Recovery Power Rectifier
.MODEL 1N3879 D (IS=4.641638f N=1.255502 BV=50 IBV=100.000001p RS=12.028657m
+ TT=369.945519n CJO=107.820346p VJ=1.269833 M=313.660098m RL=6.044776MEG)
*** Fast Recovery Power Rectifier
.MODEL 1N3880 D (IS=3.034073E-018 N=1.027727 BV=100 IBV=100.000001p
+ RS=12.570038m TT=369.945519n CJO=107.820346p VJ=1.269833 M=313.660098m
+ RL=1.666667MEG)
*** Fast Recovery Power Rectifier
.MODEL 1N3881 D (IS=2.226876E-018 N=1.020054 BV=200 IBV=100.000001p
+ RS=12.584545m TT=369.945519n CJO=107.820346p VJ=1.269833 M=313.660098m
+ RL=1.666667MEG)
*** Fast Recovery Power Rectifier
.MODEL 1N3882 D (IS=0.016822f N=1.073152 BV=300 IBV=100.000001p RS=12.465576m
+ TT=369.945519n CJO=107.820346p VJ=1.269833 M=313.660098m RL=1.666667MEG)
*** Fast Recovery Power Rectifier
.MODEL 1N3883 D (IS=0.054143f N=1.107052 BV=400 IBV=100.000001p RS=12.370421m
+ TT=369.945519n CJO=107.820346p VJ=1.269833 M=313.660098m RL=1.666667MEG)
*** Fast Recovery Power Rectifier
.MODEL 1N3889 D (IS=230.590487n N=2.191894 BV=50 IBV=100.000001p RS=8.296236m
+ TT=369.945519n CJO=105.777127p VJ=1.464517 M=320.122265m RL=1.800542MEG)
*** Fast Recovery Power Rectifier
.MODEL 1N3890 D (IS=194.701809n N=2.168538 BV=100 IBV=100.000001p RS=8.339976m
+ TT=369.945519n CJO=105.777127p VJ=1.464517 M=320.122265m RL=1.798218MEG)
*** Fast Recovery Power Rectifier
.MODEL 1N3891 D (IS=161.340579n N=2.143049 BV=200 IBV=100.000001p RS=8.387746m
+ TT=369.945519n CJO=105.777127p VJ=1.464517 M=320.122265m RL=1.796063MEG)
*** Fast Recovery Power Rectifier
.MODEL 1N3892 D (IS=212.570522n N=2.180647 BV=300 IBV=100.000001p RS=8.31603m
+ TT=369.945519n CJO=105.777127p VJ=1.464517 M=320.122265m RL=1.799375MEG)
*** Fast Recovery Power Rectifier
.MODEL 1N3893 D (IS=194.701809n N=2.168538 BV=400 IBV=100.000001p RS=8.339976m
+ TT=369.945519n CJO=105.777127p VJ=1.464517 M=320.122265m RL=1.798218MEG)
*** Fast Recovery Power Rectifier
.MODEL 1N3899 D (IS=46.311244p N=1.346817 BV=50 IBV=100.000001p RS=6.558147m
+ TT=521.408924n CJO=130.387527p VJ=2.335381 M=300m RL=1.785717MEG)
*** Fast Recovery Power Rectifier
.MODEL 1N3900 D (IS=45.723305p N=1.346136 BV=100 IBV=100.000001p RS=6.558665m
+ TT=521.408924n CJO=130.387527p VJ=2.335381 M=300m RL=1.785717MEG)
*** Fast Recovery Power Rectifier
.MODEL 1N3901 D (IS=45.590452p N=1.345981 BV=200 IBV=100.000001p RS=6.558783m
+ TT=521.408924n CJO=130.387527p VJ=2.335381 M=300m RL=1.785717MEG)
*** Fast Recovery Power Rectifier
.MODEL 1N3902 D (IS=45.607358p N=1.346001 BV=300 IBV=100.000001p RS=6.558768m
+ TT=521.408924n CJO=130.387527p VJ=2.335381 M=300m RL=1.785717MEG)
*** Fast Recovery Power Rectifier
.MODEL 1N3903 D (IS=45.624178p N=1.34602 BV=400 IBV=100.000001p RS=6.558753m
+ TT=521.408924n CJO=130.387527p VJ=2.335381 M=300m RL=1.785717MEG)
*** Fast Recovery Power Rectifier
.MODEL 1N3909 D (IS=910.624109p N=1.530555 BV=50 IBV=100.000001p RS=3.970712m
+ TT=293.642278n CJO=110.332431p VJ=1.038854 M=300.173917m RL=1.785772MEG)
*** Fast Recovery Power Rectifier
.MODEL 1N3910 D (IS=867.03286p N=1.527066 BV=100 IBV=100.000001p RS=3.973974m
+ TT=293.642278n CJO=110.332431p VJ=1.038854 M=300.173917m RL=1.78577MEG)
*** Fast Recovery Power Rectifier
.MODEL 1N3911 D (IS=891.593083p N=1.52909 BV=200 IBV=100.000001p RS=3.971884m
+ TT=293.642278n CJO=110.332431p VJ=1.038854 M=300.173917m RL=1.785771MEG)
*** Fast Recovery Power Rectifier
.MODEL 1N3912 D (IS=853.005796p N=1.525972 BV=300 IBV=100.000001p RS=3.974671m
+ TT=293.642278n CJO=110.332431p VJ=1.038854 M=300.173917m RL=1.785769MEG)
*** Fast Recovery Power Rectifier
.MODEL 1N3913 D (IS=862.440822p N=1.526741 BV=400 IBV=100.000001p RS=3.973909m
+ TT=293.642278n CJO=110.332431p VJ=1.038854 M=300.173917m RL=1.785769MEG)
*** 1.0 Amp Silicon Rectifier
.MODEL 1N4001 D (IS=3.507061n N=1.695189 BV=50 IBV=100.000001p RS=121.232918m
+ TT=4.760894n CJO=47.636139p VJ=700m M=449.723257m RL=10.007019MEG)
*** 1.0 Amp Silicon Rectifier
.MODEL 1N4002 D (IS=3.507061n N=1.695189 BV=100 IBV=100.000001p RS=121.232918m
+ TT=4.760894n CJO=47.636139p VJ=700m M=449.723257m RL=20.014039MEG)
*** 1.0 Amp Silicon Rectifier
.MODEL 1N4003 D (IS=3.507061n N=1.695189 BV=200 IBV=100.000001p RS=121.232918m
+ TT=4.760894n CJO=47.636139p VJ=700m M=449.723257m RL=40.028077MEG)
*** 1.0 Amp Silicon Rectifier
.MODEL 1N4004 D (IS=3.507061n N=1.695189 BV=400 IBV=100.000001p RS=121.232918m
+ TT=4.760894n CJO=47.636139p VJ=700m M=449.723257m RL=80.056154MEG)
*** 1.0 Amp Silicon Rectifier
.MODEL 1N4005 D (IS=3.507061n N=1.695189 BV=600 IBV=100.000001p RS=121.232918m
+ TT=4.760894n CJO=47.636139p VJ=700m M=449.723257m RL=120.084232MEG)
*** 1.0 Amp Silicon Rectifier
.MODEL 1N4006 D (IS=3.507061n N=1.695189 BV=800 IBV=100.000001p RS=121.232918m
+ TT=7.213475n CJO=34.327536p VJ=700m M=473.117165m RL=160.112309MEG)
*** 1.0 Amp Silicon Rectifier
.MODEL 1N4007 D (IS=3.507061n N=1.695189 BV=1K IBV=100.000001p RS=121.232918m
+ TT=7.213475n CJO=34.327536p VJ=700m M=473.117165m RL=200.140386MEG)
*** Generic Diode
.MODEL 1N4148 D (IS=7.187424n N=1.94878 BV=100 IBV=100.000001p RS=439.577908m
+ TT=8.952928n CJO=1.337036p VJ=9.476621 M=316.713486m RL=3.521383G)
*** Generic Diode
.MODEL 1N4150 D (IS=2.353761n N=1.77038 BV=75 IBV=100.000001p RS=1.414053
+ TT=5.77078n CJO=1.33409p VJ=8.576294 M=300m RL=2.65203G)
*** Fast Recovery Rectifier
.MODEL 1N4933 D (IS=999.999997n N=2.744414 BV=50 IBV=100.000001p RS=22.704622m
+ TT=216.404264n CJO=27.279159p VJ=810.514976m M=443.766592m RL=100T)
*** Fast Recovery Rectifier
.MODEL 1N4934 D (IS=999.999997n N=2.744414 BV=100 IBV=100.000001p RS=22.704622m
+ TT=216.404264n CJO=27.279159p VJ=810.514976m M=443.766592m RL=99.999833T)
*** Fast Recovery Rectifier
.MODEL 1N4935 D (IS=999.999997n N=2.744414 BV=200 IBV=100.000001p RS=22.704622m
+ TT=216.404264n CJO=27.279159p VJ=810.514976m M=443.766592m RL=99.999954T)
*** Fast Recovery Rectifier
.MODEL 1N4936 D (IS=999.999997n N=2.744414 BV=400 IBV=100.000001p RS=22.704622m
+ TT=216.404264n CJO=27.279159p VJ=810.514976m M=443.766592m RL=99.999888T)
*** Fast Recovery Rectifier
.MODEL 1N4937 D (IS=999.999997n N=2.744414 BV=600 IBV=100.000001p RS=22.704622m
+ TT=216.404264n CJO=27.279159p VJ=810.514976m M=443.766592m RL=99.999822T)
*** Lead mounted silicon rectifier
.MODEL 1N5391 D (IS=8.304069n N=1.905257 BV=50 IBV=100.000001p RS=38.909525m
+ TT=5.308938u CJO=50.313333p VJ=700m M=492.102012m RL=1G)
*** Lead mounted silicon rectifier
.MODEL 1N5392 D (IS=8.295967n N=1.905164 BV=100 IBV=100.000001p RS=38.909717m
+ TT=5.308938u CJO=50.313333p VJ=700m M=492.102012m RL=1G)
*** Lead mounted silicon rectifier
.MODEL 1N5393 D (IS=8.295967n N=1.905164 BV=200 IBV=100.000001p RS=38.909717m
+ TT=5.308938u CJO=50.313333p VJ=700m M=492.102012m RL=1G)
*** Lead mounted silicon rectifier
.MODEL 1N5395 D (IS=8.29921n N=1.905191 BV=400 IBV=100.000001p RS=38.910057m
+ TT=5.308938u CJO=50.313333p VJ=700m M=492.102012m RL=1G)
*** Lead mounted silicon rectifier
.MODEL 1N5397 D (IS=7.608651n N=1.895541 BV=600 IBV=100.000001p RS=38.983076m
+ TT=5.308938u CJO=50.313333p VJ=700m M=492.102012m RL=1G)
*** Lead mounted silicon rectifier
.MODEL 1N5398 D (IS=7.772941n N=1.897874 BV=800 IBV=100.000001p RS=38.967481m
+ TT=7.584198u CJO=36.055915p VJ=700m M=512.418153m RL=1G)
*** Lead mounted silicon rectifier
.MODEL 1N5399 D (IS=7.887568n N=1.899601 BV=1K IBV=100.000001p RS=38.950002m
+ TT=7.584198u CJO=36.055915p VJ=700m M=512.418153m RL=1G)
*** Standard recovery rectifiers
.MODEL 1N5400 D (IS=829.414728f N=1.15905 BV=50 IBV=100.000001p RS=9.871794m
+ TT=5u CJO=50.372243p VJ=864.597804m M=300.000189m RL=10.000002MEG)
*** Standard recovery rectifiers
.MODEL 1N5401 D (IS=301.207758f N=1.119604 BV=100 IBV=100.000001p RS=9.924438m
+ TT=5u CJO=50.372289p VJ=864.593108m M=300.000006m RL=20.000001MEG)
*** Standard recovery rectifiers
.MODEL 1N5402 D (IS=511.040369f N=1.140421 BV=200 IBV=100.000001p RS=9.881613m
+ TT=5u CJO=50.372289p VJ=864.593111m M=300.000007m RL=40.000004MEG)
*** Standard recovery rectifiers
.MODEL 1N5404 D (IS=301.207758f N=1.119604 BV=400 IBV=100.000001p RS=9.924438m
+ TT=5u CJO=50.372289p VJ=864.593111m M=300.000007m RL=80.000005MEG)
*** Standard recovery rectifiers
.MODEL 1N5406 D (IS=627.12352f N=1.147864 BV=600 IBV=100.000001p RS=9.886689m
+ TT=5u CJO=50.372475p VJ=864.57718m M=300m RL=120.000015MEG)
*** Schottky Barrier Diode
.MODEL 1N5711 D (IS=789.982099p N=951.045124m BV=70 RS=26.464395 CJO=1.476263p
+ VJ=700m M=397.031061m EG=690m XTI=2 RL=22.962065MEG)
*** Schottky Barrier Diode
.MODEL 1N5712 D (IS=4.095427n N=1.222439 BV=20 RS=7.502039 CJO=791.529647f
+ VJ=3.952016 M=300m EG=690m XTI=2 RL=2.117003G)
*** Schottky Barrier Rectifier
.MODEL 1N5817 D (IS=6.3206u N=1.095968 BV=20 IBV=100.000001p RS=82.062329m
+ CJO=222.597929p VJ=11.740199 M=1.36685 EG=690m XTI=2 RL=47.801489K)
*** Schottky Barrier Rectifier
.MODEL 1N5818 D (IS=6.3206u N=1.095968 BV=30 IBV=100.000001p RS=82.062329m
+ CJO=189.908451p VJ=6.590581 M=1.121747 EG=690m XTI=2 RL=82.17028K)
*** Schottky Barrier Rectifier
.MODEL 1N5819 D (IS=6.3206u N=1.095968 BV=40 IBV=100.000001p RS=82.062329m
+ CJO=144.67943p VJ=3.914169 M=853.398391m EG=690m XTI=2 RL=118.766981K)
*** Schottky Barrier Rectifier
.MODEL 1N5820 D (IS=3.163571u N=882.26855m BV=20 IBV=100.000001p RS=50.695769m
+ CJO=530.50684p VJ=48.107793 M=2.517354 EG=690m XTI=2 RL=52.058674K)
*** Schottky Barrier Rectifier
.MODEL 1N5821 D (IS=3.163571u N=882.26855m BV=30 IBV=100.000001p RS=50.695769m
+ CJO=427.932216p VJ=100 M=5.432663 EG=690m XTI=2 RL=85.403567K)
*** Schottky Barrier Rectifier
.MODEL 1N5822 D (IS=3.163571u N=882.26855m BV=40 IBV=100.000001p RS=50.695769m
+ CJO=395.386014p VJ=16.024263 M=1.524157 EG=690m XTI=2 RL=183.180143K)
*** Schottky Barrier Rectifier
.MODEL 1N5823 D (IS=27.659695u N=977.121639m BV=20 IBV=100.000001p RS=4.250223m
+ CJO=2.354189n VJ=700m M=488.264704m EG=690m XTI=2 RL=6.988849K)
*** Schottky Barrier Rectifier
.MODEL 1N5824 D (IS=27.657699u N=977.115554m BV=30 IBV=100.000001p RS=4.25023m
+ CJO=1.89667n VJ=700m M=506.091487m EG=690m XTI=2 RL=8.468408K)
*** Schottky Barrier Rectifier
.MODEL 1N5825 D (IS=27.657699u N=977.115554m BV=40 IBV=100.000001p RS=4.25023m
+ CJO=1.760789n VJ=700m M=535.733899m EG=690m XTI=2 RL=12.409169K)
*** Schottky Barrier Rectifier
.MODEL 1N5826 D (IS=27.658478u N=977.117931m BV=20 IBV=100.000001p RS=4.250227m
+ CJO=2.354615n VJ=700m M=473.691763m EG=690m XTI=2 RL=6.988867K)
*** Schottky Barrier Rectifier
.MODEL 1N5827 D (IS=27.657176u N=977.113962m BV=30 IBV=100.000001p RS=4.250232m
+ CJO=1.893382n VJ=700m M=502.72449m EG=690m XTI=2 RL=8.468409K)
*** Schottky Barrier Rectifier
.MODEL 1N5828 D (IS=27.657699u N=977.115554m BV=40 IBV=100.000001p RS=4.25023m
+ CJO=1.716663n VJ=700m M=522.260109m EG=690m XTI=2 RL=12.409169K)
*** Schottky Barrier Rectifier
.MODEL 1N5829 D (IS=11.993747u N=856.587256m BV=20 IBV=100.000001p RS=4.032339m
+ CJO=6.170439n VJ=700m M=663.086678m EG=690m XTI=2 RL=3.366976K)
*** Schottky Barrier Rectifier
.MODEL 1N5830 D (IS=10.994505u N=850.793066m BV=30 IBV=100.000001p RS=4.036704m
+ CJO=4.880634n VJ=700m M=636.634694m EG=690m XTI=2 RL=4.044467K)
*** Schottky Barrier Rectifier
.MODEL 1N5831 D (IS=11.970929u N=856.46156m BV=40 IBV=100.000001p RS=4.032427m
+ CJO=4.088908n VJ=700m M=635.67016m EG=690m XTI=2 RL=5.813741K)
*** Schottky Barrier Rectifier
.MODEL 1N5832 D (IS=11.953409u N=856.364904m BV=20 IBV=100.000001p RS=4.032495m
+ CJO=6.194266n VJ=700m M=670.427082m EG=690m XTI=2 RL=3.366869K)
*** Schottky Barrier Rectifier
.MODEL 1N5833 D (IS=11.970929u N=856.46156m BV=30 IBV=100.000001p RS=4.032427m
+ CJO=4.880634n VJ=700m M=636.634694m EG=690m XTI=2 RL=4.048464K)
*** Schottky Barrier Rectifier
.MODEL 1N5834 D (IS=11.949791u N=856.344856m BV=40 IBV=100.000001p RS=4.032509m
+ CJO=4.311449n VJ=700m M=666.484287m EG=690m XTI=2 RL=5.813552K)
*** Schottky Barrier Rectifier
.MODEL 1N6095 D (IS=25u N=1.255849 BV=30 IBV=100.000001p RS=4.803774m
+ CJO=2.252308n VJ=722.054361m M=493.591144m EG=690m XTI=2 RL=99.999979T)
*** Schottky Barrier Rectifier
.MODEL 1N6096 D (IS=34u N=1.289218 BV=40 IBV=100.000001p RS=4.766673m
+ CJO=2.252308n VJ=722.054361m M=493.591144m EG=690m XTI=2 RL=99.999966T)
*** Schottky Barrier Rectifier
.MODEL 1N6097 D (IS=100u N=1.423967 BV=30 IBV=100.000001p RS=3.500904m
+ CJO=4.720849n VJ=700m M=550.90385m EG=690m XTI=2 RL=99.999998T)
*** Schottky Barrier Rectifier
.MODEL 1N6098 D (IS=200u N=1.526479 BV=40 IBV=100.000001p RS=3.381355m
+ CJO=4.720849n VJ=700m M=550.90385m EG=690m XTI=2 RL=99.999999T)
*** Schottky Barrier Rectifier
.MODEL MBR030 D (IS=79.963055u N=2.473708 BV=30 IBV=100.000001p RS=114.374158m
+ CJO=74.247503p VJ=14.61476 M=300m EG=690m XTI=2 RL=1G)
*** Schottky Barrier Rectifier
.MODEL MBR040 D (IS=79.900112u N=2.473428 BV=40 IBV=100.000001p RS=114.389127m
+ CJO=74.247503p VJ=14.61476 M=300m EG=690m XTI=2 RL=1G)
*** Schottky Barrier Rectifier
.MODEL MBR115P D (IS=10.963496u N=1.154435 BV=15 IBV=100.000001p RS=80.954901m
+ CJO=222.597929p VJ=11.740199 M=1.36685 EG=690m XTI=2 RL=62.751922K)
*** Schottky Barrier Rectifier
.MODEL MBR120P D (IS=9.172118u N=1.132632 BV=20 IBV=100.000001p RS=81.528152m
+ CJO=222.597929p VJ=11.740199 M=1.36685 EG=690m XTI=2 RL=68.769236K)
*** Schottky Barrier Rectifier
.MODEL MBR130P D (IS=7.080944u N=1.10389 BV=30 IBV=100.000001p RS=82.172642m
+ CJO=189.908451p VJ=6.590581 M=1.121747 EG=690m XTI=2 RL=102.417373K)
*** Schottky Barrier Rectifier
.MODEL MBR140P D (IS=7.189524u N=1.105318 BV=40 IBV=100.000001p RS=82.157549m
+ CJO=144.67943p VJ=3.914169 M=853.398391m EG=690m XTI=2 RL=136.607132K)
*** Schottky Barrier Rectifier
.MODEL MBR150 D (IS=147.476809u N=2.203042 BV=50 IBV=100.000001p RS=126.340366m
+ CJO=360.053441p VJ=700m M=753.986356m EG=690m XTI=2 RL=9.611665K)
*** Schottky Barrier Rectifier
.MODEL MBR160 D (IS=124.990148u N=2.14346 BV=60 IBV=100.000001p RS=129.967028m
+ CJO=360.053441p VJ=700m M=753.986356m EG=690m XTI=2 RL=9.454478K)
*** Schottky Barrier Rectifier
.MODEL MBR320 D (IS=3u N=1.152238 BV=20 IBV=100.000001p RS=22.402326m
+ CJO=552.095551p VJ=700m M=532.301375m EG=690m XTI=2 RL=99.999922T)
*** Schottky Barrier Rectifier
.MODEL MBR320P D (IS=3.162364u N=882.23927m BV=20 IBV=100.000001p RS=50.696136m
+ CJO=530.50684p VJ=48.107793 M=2.517354 EG=690m XTI=2 RL=52.057787K)
*** Schottky Barrier Rectifier
.MODEL MBR330 D (IS=3.8u N=1.175006 BV=30 IBV=100.000001p RS=22.255336m
+ CJO=552.095551p VJ=700m M=532.301375m EG=690m XTI=2 RL=99.999932T)
*** Schottky Barrier Rectifier
.MODEL MBR330P D (IS=3.163571u N=882.26855m BV=30 IBV=100.000001p RS=50.695769m
+ CJO=427.932216p VJ=100 M=5.432663 EG=690m XTI=2 RL=85.403567K)
*** Schottky Barrier Rectifier
.MODEL MBR340 D (IS=6.5u N=1.230177 BV=40 IBV=100.000001p RS=21.90005m
+ CJO=552.095551p VJ=700m M=532.301375m EG=690m XTI=2 RL=100T)
*** Schottky Barrier Rectifier
.MODEL MBR340P D (IS=3.163571u N=882.26855m BV=40 IBV=100.000001p RS=50.695769m
+ CJO=395.386014p VJ=16.024263 M=1.524157 EG=690m XTI=2 RL=183.180143K)
*** Schottky Barrier Rectifier
.MODEL MBR350 D (IS=1.763624u N=1.103646 BV=50 IBV=100.000001p RS=53.063596m
+ CJO=319.770094p VJ=4.103804 M=878.749119m EG=690m XTI=2 RL=8.017476MEG)
*** Schottky Barrier Rectifier
.MODEL MBR360 D (IS=1.762772u N=1.103602 BV=60 IBV=100.000001p RS=53.064197m
+ CJO=319.770094p VJ=4.103804 M=878.749119m EG=690m XTI=2 RL=8.290467MEG)
*** Schottky Barrier Rectifier
.MODEL MBR1035 D (IS=14.50206u N=1.408592 BV=35 IBV=100.000001p RS=10.868199m
+ CJO=1.011509n VJ=700m M=537.694618m EG=690m XTI=2 RL=1.320857MEG)
*** Schottky Barrier Rectifier
.MODEL MBR1045 D (IS=14.495791u N=1.40854 BV=45 IBV=100.000001p RS=10.868294m
+ CJO=1.011509n VJ=700m M=537.694618m EG=690m XTI=2 RL=810.749245K)
*** Schottky Barrier Rectifier(Dual)
.MODEL MBR2035CT D (IS=2.156419u N=1.149033 BV=35 IBV=100.000001p RS=11.571453m
+ CJO=973.823072p VJ=700m M=512.101828m EG=690m XTI=2 RL=257.442757K)
*** Schottky Barrier Rectifier(Dual)
.MODEL MBR2045CT D (IS=2.156419u N=1.149033 BV=45 IBV=100.000001p RS=11.571453m
+ CJO=973.823072p VJ=700m M=512.101828m EG=690m XTI=2 RL=663.29049K)
*** Schottky Barrier Rectifiers(Dual)
.MODEL MBR3020CT D (IS=19.561188p N=556.230246m BV=20 IBV=100.000001p
+ RS=8.557837m CJO=2.565051n VJ=700m M=579.109588m EG=690m XTI=2 RL=1.000002MEG)
*** Schottky Barrier Rectifiers(Dual)
.MODEL MBR3035CT D (IS=19.561188p N=556.230246m BV=35 IBV=100.000001p
+ RS=8.557837m CJO=2.565051n VJ=700m M=579.109588m EG=690m XTI=2 RL=1.000002MEG)
*** Schottky Barrier Rectifiers(Dual)
.MODEL MBR3035PT D (IS=22.678818n N=814.22156m BV=35 IBV=100.000001p
+ RS=7.839171m CJO=2.565051n VJ=700m M=579.109588m EG=690m XTI=2 RL=1.002273MEG)
*** Schottky Barrier Rectifiers(Dual)
.MODEL MBR3045CT D (IS=19.561188p N=556.230246m BV=45 IBV=100.000001p
+ RS=8.557837m CJO=2.565051n VJ=700m M=579.109588m EG=690m XTI=2 RL=1.000002MEG)
*** Schottky Barrier Rectifiers(Dual)
.MODEL MBR3045PT D (IS=22.678818n N=814.22156m BV=45 IBV=100.000001p
+ RS=7.839171m CJO=2.565051n VJ=700m M=579.109588m EG=690m XTI=2 RL=1.002273MEG)
*** Schottky Barrier Rectifier
.MODEL MBR3520 D (IS=719.494411n N=995.206476m BV=20 IBV=100.000001p
+ RS=4.512568m CJO=5.651588n VJ=700m M=628.329825m EG=690m XTI=2 RL=316.053058K)
*** Schottky Barrier Rectifier
.MODEL MBR3535 D (IS=719.53529n N=995.210292m BV=35 IBV=100.000001p
+ RS=4.512564m CJO=5.651588n VJ=700m M=628.329825m EG=690m XTI=2 RL=316.053262K)
*** Schottky Barrier Rectifier
.MODEL MBR3545 D (IS=719.537507n N=995.210498m BV=45 IBV=100.000001p
+ RS=4.512564m CJO=5.651588n VJ=700m M=628.329825m EG=690m XTI=2 RL=316.053273K)
*** Schottky Barrier Rectifier
.MODEL MBR3545H D (IS=719.551656n N=995.211817m BV=45 IBV=100.000001p
+ RS=4.512562m CJO=5.651588n VJ=700m M=628.329825m EG=690m XTI=2 RL=316.053348K)
*** Schottky Barrier Rectifier
.MODEL MBR3545H1 D (IS=719.539774n N=995.210709m BV=45 IBV=100.000001p
+ RS=4.512564m CJO=5.651588n VJ=700m M=628.329825m EG=690m XTI=2 RL=316.053285K)
*** Schottky Barrier Rectifier
.MODEL MBR5825H D (IS=27.659549u N=977.121197m BV=40 IBV=100.000001p
+ RS=4.250224m CJO=1.760789n VJ=700m M=535.733899m EG=690m XTI=2 RL=12.409195K)
*** Schottky Barrier Rectifier
.MODEL MBR5825H1 D (IS=27.659103u N=977.119835m BV=40 IBV=100.000001p
+ RS=4.250225m CJO=1.760789n VJ=700m M=535.733899m EG=690m XTI=2 RL=12.409223K)
*** Schottky Barrier Rectifier
.MODEL MBR5831H D (IS=29.176418u N=924.879162m BV=40 IBV=100.000001p
+ RS=3.861613m CJO=4.088908n VJ=700m M=635.67016m EG=690m XTI=2 RL=5.96282K)
*** Schottky Barrier Rectifier
.MODEL MBR5831H1 D (IS=28.402853u N=922.738058m BV=40 IBV=100.000001p
+ RS=3.864006m CJO=4.088908n VJ=700m M=635.67016m EG=690m XTI=2 RL=5.955977K)
*** Schottky Rectifier
.MODEL MBR6015L D (IS=151.843228n N=805.384874m BV=15 IBV=100.000001p
+ RS=1.022631m CJO=9.677702n VJ=700m M=556.750445m EG=690m XTI=2 RL=29.424921K)
*** Schottky Rectifier
.MODEL MBR6020L D (IS=151.843228n N=805.384874m BV=20 IBV=100.000001p
+ RS=1.022631m CJO=9.677702n VJ=700m M=556.750445m EG=690m XTI=2 RL=29.424921K)
*** Schottky Rectifier
.MODEL MBR6025L D (IS=152.622095n N=805.767404m BV=25 IBV=100.000001p
+ RS=1.023524m CJO=9.677702n VJ=700m M=556.750445m EG=690m XTI=2 RL=29.424989K)
*** Schottky Rectifier
.MODEL MBR6030L D (IS=151.843228n N=805.384874m BV=30 IBV=100.000001p
+ RS=1.022631m CJO=9.677702n VJ=700m M=556.750445m EG=690m XTI=2 RL=29.424921K)
*** Schottky Rectifier
.MODEL MBR6035 D (IS=2.095001u N=1.075488 BV=35 IBV=100.000001p RS=3.545015m
+ CJO=4.801617n VJ=700m M=537.08776m EG=690m XTI=2 RL=323.075686K)
*** Schottky Rectifier
.MODEL MBR6035B D (IS=2.09416u N=1.075457 BV=35 IBV=100.000001p RS=3.545052m
+ CJO=4.801617n VJ=700m M=537.08776m EG=690m XTI=2 RL=323.071296K)
*** Schottky Rectifier
.MODEL MBR6045 D (IS=2.085872u N=1.075148 BV=45 IBV=100.000001p RS=3.545409m
+ CJO=4.801617n VJ=700m M=537.08776m EG=690m XTI=2 RL=323.028084K)
*** Schottky Rectifier
.MODEL MBR6045B D (IS=2.086482u N=1.075171 BV=45 IBV=100.000001p RS=3.545383m
+ CJO=4.801617n VJ=700m M=537.08776m EG=690m XTI=2 RL=323.031247K)
*** Schottky Rectifier
.MODEL MBR6045H D (IS=2.085247u N=1.075125 BV=45 IBV=100.000001p RS=3.545436m
+ CJO=4.801617n VJ=700m M=537.08776m EG=690m XTI=2 RL=323.024789K)
*** Schottky Rectifier
.MODEL MBR6045H1 D (IS=2.086482u N=1.075171 BV=45 IBV=100.000001p RS=3.545383m
+ CJO=4.801617n VJ=700m M=537.08776m EG=690m XTI=2 RL=323.031247K)
*** High Temp Schottky Rectifier
.MODEL MBR6535 D (IS=3.751859u N=1.236987 BV=35 IBV=100.000001p RS=2.994014m
+ CJO=4.801617n VJ=700m M=537.08776m EG=690m XTI=2 RL=28.041694MEG)
*** High Temp Schottky Rectifier
.MODEL MBR6545 D (IS=3.698531u N=1.235616 BV=45 IBV=100.000001p RS=2.99588m
+ CJO=4.801617n VJ=700m M=537.087761m EG=690m XTI=2 RL=7.141193MEG)
*** Schottky Barrier Rectifier
.MODEL MBR7535 D (IS=20.133239u N=1.129735 BV=35 IBV=100.000001p RS=2.152445m
+ CJO=13.279449n VJ=2.1553 M=999.999985m EG=690m XTI=2 RL=125.208536K)
*** Schottky Barrier Rectifier
.MODEL MBR7540 D (IS=15.937206u N=1.108844 BV=40 IBV=100.000001p RS=2.163713m
+ CJO=13.279449n VJ=2.1553 M=999.999985m EG=690m XTI=2 RL=118.958692K)
*** Schottky Barrier Rectifier
.MODEL MBR7545 D (IS=2.526477u N=967.096878m BV=45 IBV=100.000001p RS=2.241403m
+ CJO=13.279449n VJ=2.1553 M=999.999985m EG=690m XTI=2 RL=102.591965K)
*** Schottky Rectifier
.MODEL MBR8035 D (IS=11u N=1.199082 BV=35 IBV=100.000001p RS=2.669307m
+ CJO=7.687618n VJ=700m M=603.083754m EG=690m XTI=2 RL=99.999999T)
*** Schottky Rectifier
.MODEL MBR8045 D (IS=13.555184u N=1.220887 BV=45 IBV=100.000001p RS=2.636509m
+ CJO=7.687618n VJ=700m M=603.083754m EG=690m XTI=2 RL=6.044474MEG)
*** Schottky Barrier Rectifier(Dual)
.MODEL MBR12035CT D (IS=18u N=1.410487 BV=35 IBV=100.000001p RS=1.983073m
+ CJO=4.393452n VJ=700m M=563.38464m EG=690m XTI=2 RL=99.999992T)
*** Schottky Barrier Rectifier(Dual)
.MODEL MBR12045CT D (IS=40u N=1.506323 BV=45 IBV=100.000001p RS=1.902853m
+ CJO=4.393452n VJ=700m M=563.38464m EG=690m XTI=2 RL=99.999992T)
*** Schottky Barrier Rectifier(Dual)
.MODEL MBR12050CT D (IS=40u N=1.506323 BV=50 IBV=100.000001p RS=1.902853m
+ CJO=4.393452n VJ=700m M=563.38464m EG=690m XTI=2 RL=99.999992T)
*** Schottky Barrier Rectifier(Dual)
.MODEL MBR12060CT D (IS=40u N=1.506323 BV=60 IBV=100.000001p RS=1.902853m
+ CJO=4.393452n VJ=700m M=563.38464m EG=690m XTI=2 RL=99.999992T)
*** Low Vf Schottky Barrier Rectifier
.MODEL MBR20015CTL D (IS=73.958787u N=1.025366 BV=15 IBV=100.000001p
+ RS=575.730598u CJO=18.5233n VJ=1.0249 M=634.832053m EG=690m XTI=2
+ RL=56.382242K)
*** Low Vf Schottky Barrier Rectifier
.MODEL MBR20020CTL D (IS=64.53276u N=1.01421 BV=20 IBV=100.000001p
+ RS=581.369277u CJO=18.5233n VJ=1.0249 M=634.832053m EG=690m XTI=2
+ RL=30.054071K)
*** Low Vf Schottky Barrier Rectifier
.MODEL MBR20025CTL D (IS=49.942844u N=993.796326m BV=25 IBV=100.000001p
+ RS=591.324684u CJO=18.5233n VJ=1.0249 M=634.832053m EG=690m XTI=2
+ RL=166.603188K)
*** Low Vf Schottky Barrier Rectifier
.MODEL MBR20030CTL D (IS=49.942844u N=993.796326m BV=30 IBV=100.000001p
+ RS=591.324684u CJO=18.5233n VJ=1.0249 M=634.832053m EG=690m XTI=2
+ RL=66.641204K)
*** Schottky Barrier Rectifiers(Dual)
.MODEL MBR30035CT D (IS=37u N=1.357311 BV=35 IBV=100.000001p RS=817.453592u
+ CJO=15.283402n VJ=700m M=640.269636m EG=690m XTI=2 RL=99.999992T)
*** Schottky Barrier Rectifiers(Dual)
.MODEL MBR30045CT D (IS=43.056309u N=1.374222 BV=45 IBV=100.000001p
+ RS=806.074054u CJO=15.283402n VJ=700m M=640.269637m EG=690m XTI=2
+ RL=2.148618MEG)
*** Schottky Barrier Rectifiers(Dual)
.MODEL MBR30050CT D (IS=32.778829u N=1.341442 BV=50 IBV=100.000001p
+ RS=844.526724u CJO=15.283402n VJ=700m M=640.269637m EG=690m XTI=2
+ RL=743.813286K)
*** Schottky Barrier Rectifiers(Dual)
.MODEL MBR30060CT D (IS=32.767427u N=1.341402 BV=60 IBV=100.000001p
+ RS=844.527161u CJO=15.283402n VJ=700m M=640.269637m EG=690m XTI=2
+ RL=743.687123K)
*** Schottky Barrier Rectifier
.MODEL MBRD320 D (IS=16.749159p N=500m BV=20 IBV=100.000001p RS=41.326701m
+ CJO=801.568859p VJ=700m M=538.556807m EG=690m XTI=2 RL=5.000021MEG)