*IXYS Corporation SPICE Models

.SUBCKT CS20-22   A	G K
R_RF         H E 100E06  
Q_QN         E H M  NOUTCS20-22 
Q_QP         H E A POUTCS20-22 
D_DF         H E ZFCS20-22 
D_DGK        H M ZGKCS20-22 
D_DR         A E ZRCS20-22 
R_RR         A E 66.5E06 
R_RK         K M 0.0047 
R_RG         G H 3.16 
R_RGK        H M 27.9  

.MODEL ZRCS20-22 D
+IS=7.2E-15
+IBV=5.0E-06
+BV=2200
.MODEL ZFCS20-22 D
+IS=7.2E-15
+IBV=5.0E-06 
+BV=2200
.MODEL ZGKCS20-22 D
+IS=7.2E-15 
+IBV=5.0E-06 
+BV=6
.MODEL NOUTCS20-22 NPN
+IS=7.2E-12 
+BF=100
+RC=0.14 
+CJE=1.09E-09 
+CJC=218.0E-12 
+TF=2.0E-06
.MODEL POUTCS20-22 PNP
+IS=7.2E-12 
+BF=1.00 
+CJE=218.0E-12
+TF=60E-06

.ENDS

*DEVICE=DSEP29-12A,D

* DSEP29-12A D model
.MODEL DSEP29-12A D
+ IS=2.6918E-6
+ N=4.9950
+ RS=18.105E-3
+ IKF=999
+ CJO=1.0000E-12
+ M=.3333
+ VJ=.75
+ ISR=21.145E-6
+ BV=1.2001E3
+ IBV=2.1553E-3
+ TT=16.681E-9
*$
*DEVICE=DSEP8-12A,D

* DSEP8-12A D model
.MODEL DSEP8-12A D
+ IS=3.7288E-6
+ N=4.9950
+ RS=72.502E-3
+ IKF=999
+ CJO=1.0000E-12
+ M=.3333
+ VJ=.75
+ ISR=4.8113E-6
+ BV=1.2002E3
+ IBV=21.554E-3
+ TT=31.929E-9
*$
.SUBCKT IXBH28N170 C G E
D_D1         E C IXBH28N170D 
Z_Q1         H G E IXBH28N170
L_L1         C H 100nH 

*DEVICE=IXBH28N170,NIGBT

* IXBH28N170 NIGBT model
.MODEL IXBH28N170 NIGBT
+ TAU=724.58E-9
+ KP=4.9044
+ AREA=30.000E-6
+ AGD=12.000E-6
+ WB=117.00E-6
+ VT=4.2430
+ MUN=1.0000E6
+ MUP=100
+ BVF=9.6530
+ KF=.5005
+ CGS=13.921E-9
+ COXD=38.378E-9
+ VTD=-5


.MODEL IXBH28N170D D
+ IS=2.8638E-6
+ N=4.9950
+ RS=16.617E-3
+ IKF=999
+ CJO=1.0000E-12
+ M=.3333
+ VJ=.75
+ ISR=100.00E-12
+ BV=1.7000E3
+ IBV=1.5214E-6
+ TT=5.0000E-9


.ENDS
*$
.SUBCKT IXBH40N160 C G E
L_L1         C H 10nH
D_D1         E H IXBH40N160D 
Z_Q1         H G E IXBH40N160
.MODEL IXBH40N160 NIGBT
+ TAU=85.078E-9
+ KP=3.2609
+ AREA=16.500E-6
+ AGD=6.6000E-6
+ WB=117.00E-6
+ VT=7.2525
+ MUN=1.0000E6
+ MUP=10
+ BVF=9.9990
+ KF=.5005
+ CGS=29.725E-9
+ COXD=76.601E-9
+ VTD=-5
.MODEL IXBH40N160D D
+ IS=7.8242E-9
+ N=5
+ RS=26.140E-3
+ IKF=999
+ CJO=449.00E-12
+ M=.3333
+ VJ=.75
+ ISR=100.00E-12
+ NR=.5
+ BV=1.5999E3
+ IBV=16.165E-6
+ TT=357.00E-9
.ENDS
*$
.SUBCKT IXBH6N170 C G E
D_D1         E C IXBH6N170D 
Z_Q1         C G E IXBH6N170


*DEVICE=IXBH6N170,NIGBT

* IXBH6N170 NIGBT model
.MODEL IXBH6N170 NIGBT
+ TAU=538.31E-9
+ KP=1.2160
+ AREA=6.0000E-6
+ AGD=2.4000E-6
+ WB=117.00E-6
+ VT=4.6947
+ MUN=150.00E3
+ MUP=300
+ BVF=9.9950
+ KF=.5005
+ CGS=13.825E-9
+ COXD=6.6229E-9
+ VTD=-5


.MODEL IXBH6N170D D
+ IS=1.5337E-6
+ N=4.9950
+ RS=69.712E-3
+ IKF=999
+ CJO=1.0000E-12
+ M=.3333
+ VJ=.75
+ ISR=100.00E-12
+ BV=1.7000E3
+ IBV=15.214E-6
+ TT=27.058E-9


.ENDS
*$
*$
.SUBCKT IXBT28N170 C G E
D_D1         E C IXBT28N170D 
Z_Q1         H G E IXBT28N170
L_L1         C H 100nH 

*DEVICE=IXBT28N170,NIGBT

* IXBT28N170 NIGBT model
.MODEL IXBT28N170 NIGBT
+ TAU=724.58E-9
+ KP=4.9044
+ AREA=30.000E-6
+ AGD=12.000E-6
+ WB=117.00E-6
+ VT=4.2430
+ MUN=1.0000E6
+ MUP=100
+ BVF=9.6530
+ KF=.5005
+ CGS=13.921E-9
+ COXD=38.378E-9
+ VTD=-5


.MODEL IXBT28N170D D
+ IS=2.8638E-6
+ N=4.9950
+ RS=16.617E-3
+ IKF=999
+ CJO=1.0000E-12
+ M=.3333
+ VJ=.75
+ ISR=100.00E-12
+ BV=1.7000E3
+ IBV=1.5214E-6
+ TT=5.0000E-9


.ENDS
*$
*$
.SUBCKT IXBT6N170 C G E
D_D1         E C IXBT6N170D 
Z_Q1         H G E IXBT6N170
L_L1         C H 100nH

.MODEL IXBT6N170 NIGBT
+ TAU=538.31E-9
+ KP=1.2160
+ AREA=6.0000E-6
+ AGD=2.4000E-6
+ WB=117.00E-6
+ VT=4.6947
+ MUN=150.00E3
+ MUP=300
+ BVF=9.9950
+ KF=.5005
+ CGS=13.825E-9
+ COXD=6.6229E-9
+ VTD=-5


.MODEL IXBT6N170D D
+ IS=1.5337E-6
+ N=4.9950
+ RS=69.712E-3
+ IKF=999
+ CJO=1.0000E-12
+ M=.3333
+ VJ=.75
+ ISR=100.00E-12
+ BV=1.7000E3
+ IBV=15.214E-6
+ TT=27.058E-9

.ENDS
*$
*$
*DEVICE=IXDH20N120,NIGBT

* IXDH20N120 NIGBT model
.MODEL IXDH20N120 NIGBT
+ TAU=72.124E-9
+ KP=3.6746
+ AREA=19.000E-6
+ AGD=7.6000E-6
+ WB=117.00E-6
+ VT=6.5121
+ MUN=1.0000E6
+ MUP=400
+ BVF=9.1500
+ KF=.5005
+ CGS=10.787E-9
+ COXD=29.004E-9
+ VTD=-5
*$
*$
*DEVICE=IXFB38N100Q2,NMOS

* IXFB38N100Q2 NMOS model
.MODEL IXFB38N100Q2 NMOS
+ LEVEL=3
+ L=2.0000E-6
+ W=210
+ KP=1.0490E-6
+ RS=10.000E-3
+ RD=.22637
+ VTO=4.2268
+ RDS=200.00E6
+ TOX=2.0000E-6
+ CGSO=22.636E-12
+ CGDO=1.0755E-12
+ CBD=7.0204E-9
+ MJ=1.0054
+ PB=3
+ RG=5.8559
+ IS=52.458E-6
+ N=2.8506
+ RB=1.0000E-9
+ GAMMA=0
+ KAPPA=0
*$
*DEVICE=IXFB50N80Q2,NMOS

* IXFB50N80Q2 NMOS model
.MODEL IXFB50N80Q2 NMOS
+ LEVEL=3
+ L=2.0000E-6
+ W=370
+ KP=1.0296E-6
+ RS=10.000E-3
+ RD=.13696
+ VTO=4.4266
+ RDS=16.000E6
+ TOX=2.0000E-6
+ CGSO=27.027E-18
+ CGDO=816.78E-15
+ CBD=7.1623E-9
+ MJ=.90856
+ PB=3
+ RG=10.000E-3
+ IS=41.392E-6
+ N=2.7498
+ RB=1.0000E-9
+ GAMMA=0
+ KAPPA=0
*$
*DEVICE=IXFB70N60Q2,NMOS

* IXFB70N60Q2 NMOS model
.MODEL IXFB70N60Q2 NMOS
+ LEVEL=3
+ L=2.0000E-6
+ W=310
+ KP=1.0440E-6
+ RS=10.000E-3
+ RD=70.852E-3
+ VTO=4.1750
+ RDS=24.000E6
+ TOX=2.0000E-6
+ CGSO=3.3112E-12
+ CGDO=1.3430E-12
+ CBD=7.2570E-9
+ MJ=.88403
+ PB=3
+ RG=10.000E-3
+ IS=5.2982E-6
+ N=2.2894
+ RB=1.0000E-9
+ GAMMA=0
+ KAPPA=0
*$
*DEVICE=IXFB72N55Q2,NMOS

* IXFB72N55Q2 NMOS model
.MODEL IXFB72N55Q2 NMOS
+ LEVEL=3
+ L=2.0000E-6
+ W=280
+ KP=1.0445E-6
+ RS=10.000E-3
+ RD=.67747
+ VTO=4.7504
+ RDS=11.000E6
+ TOX=2.0000E-6
+ CGSO=8.0415E-12
+ CGDO=1.6066E-12
+ CBD=11.745E-9
+ MJ=.75237
+ PB=1.1977
+ RG=10.000E-3
+ IS=11.365E-6
+ N=1.9927
+ RB=1.0000E-9
+ GAMMA=0
+ KAPPA=0
*$
*DEVICE=IXFB80N50Q2,NMOS

* IXFB80N50Q2 NMOS model
.MODEL IXFB80N50Q2 NMOS
+ LEVEL=3
+ L=2.0000E-6
+ W=410
+ KP=1.0322E-6
+ RS=10.000E-3
+ RD=48.999E-3
+ VTO=4.8591
+ RDS=10.000E6
+ TOX=2.0000E-6
+ CGSO=24.390E-18
+ CGDO=1.2181E-12
+ CBD=13.426E-9
+ MJ=1.5000
+ PB=3
+ RG=10.000E-3
+ IS=81.260E-6
+ N=2.7566
+ RB=1.0000E-9
+ GAMMA=0
+ KAPPA=0
*$
*DEVICE=IXFE36N100,NMOS

* IXFE36N100 NMOS model
.MODEL IXFE36N100 NMOS
+ LEVEL=3
+ L=2.0000E-6
+ W=52
+ KP=1.0353E-6
+ RS=10.000E-3
+ RD=.22254
+ VTO=4.7737
+ RDS=10.000E6
+ TOX=2.0000E-6
+ CGSO=208.54E-12
+ CGDO=7.5038E-12
+ CBD=23.424E-9
+ MJ=1.5000
+ PB=3
+ RG=10.000E-3
+ IS=8.8150E-6
+ N=2.2584
+ RB=1.0000E-9
+ GAMMA=0
+ KAPPA=0
*$
*DEVICE=IXFH14N100Q2,NMOS

* IXFH14N100Q2 NMOS model
.MODEL IXFH14N100Q2 NMOS
+ LEVEL=3
+ L=2.0000E-6
+ W=32
+ KP=1.0408E-6
+ RS=10.000E-3
+ RD=.72253
+ VTO=5.0689
+ RDS=40.000E6
+ TOX=2.0000E-6
+ CGSO=47.870E-12
+ CGDO=2.7438E-12
+ CBD=3.9741E-9
+ MJ=.84366
+ PB=.86605
+ RG=10.000E-3
+ IS=1.0215E-6
+ N=4.1108
+ RB=1.0000E-9
+ GAMMA=0
+ KAPPA=0
*$
*DEVICE=IXFH17N80Q,NMOS

* IXFH17N80Q NMOS model
.MODEL IXFH17N80Q NMOS
+ LEVEL=3
+ L=2.0000E-6
+ W=50
+ KP=1.0392E-6
+ RS=10.000E-3
+ RD=.48861
+ VTO=3.8688
+ RDS=32.000E6
+ TOX=2.0000E-6
+ CGSO=45.378E-12
+ CGDO=2.1845E-12
+ CBD=4.4928E-9
+ MJ=.69928
+ PB=.3905
+ RG=10.000E-4
+ IS=5.65E-6
+ N=3.6831
+ RB=1.0000E-9
+ GAMMA=0
+ KAPPA=0
*$
*DEVICE=IXFH20N60Q,NMOS

* IXFH20N60Q NMOS model
.MODEL IXFH20N60Q NMOS
+ LEVEL=3
+ L=2.0000E-6
+ W=43
+ KP=1.0403E-6
+ RS=10.000E-3
+ RD=.28415
+ VTO=4.5845
+ RDS=24.000E6
+ TOX=2.0000E-6
+ CGSO=47.392E-12
+ CGDO=3.3959E-12
+ CBD=3.5864E-9
+ MJ=.8456
+ PB=1.1302
+ RG=10.000E-3
+ IS=3.47E-6
+ N=3.2641
+ RB=1.0000E-9
+ GAMMA=0
+ KAPPA=0
*$
*DEVICE=IXFH21N50Q,NMOS

* IXFH21N50Q NMOS model
.MODEL IXFH21N50Q NMOS
+ LEVEL=3
+ L=2.0000E-6
+ W=64
+ KP=1.0374E-6
+ RS=10.000E-3
+ RD=.21715
+ VTO=4.4900
+ RDS=20.000E6
+ TOX=2.0000E-6
+ CGSO=15.984E-12
+ CGDO=2.3678E-12
+ CBD=4.7571E-9
+ MJ=.69199
+ PB=.3905
+ RG=1.0184
+ IS=31.503E-6
+ N=2.5305
+ RB=1.0000E-9
+ GAMMA=0
+ KAPPA=0
*$
*DEVICE=IXFH23N60Q,NMOS

* IXFH23N60Q NMOS model
.MODEL IXFH23N60Q NMOS
+ LEVEL=3
+ L=2.0000E-6
+ W=64
+ KP=1.0436E-6
+ RS=10.000E-3
+ RD=.2743
+ VTO=4.4478
+ RDS=24.000E6
+ TOX=2.0000E-6
+ CGSO=24.725E-12
+ CGDO=2.3431E-12
+ CBD=4.5201E-9
+ MJ=.66214
+ PB=.3905
+ RG=10.000E-3
+ IS=5.75E-6
+ N=3.3032
+ RB=1.0000E-9
+ GAMMA=0
+ KAPPA=0
*$
*DEVICE=IXFH23N80Q,NMOS

* IXFH23N80Q NMOS model
.MODEL IXFH23N80Q NMOS
+ LEVEL=3
+ L=2.0000E-6
+ W=220
+ KP=1.0349E-6
+ RS=10.000E-3
+ RD=.39916
+ VTO=4.7071
+ RDS=32.000E6
+ TOX=2.0000E-6
+ CGSO=45.455E-18
+ CGDO=620.89E-15
+ CBD=6.7972E-9
+ MJ=.72622
+ PB=.3905
+ RG=10.000E-3
+ IS=18.911E-6
+ N=2.5997
+ RB=1.0000E-9
+ GAMMA=0
+ KAPPA=0
*$
*DEVICE=IXFH26N60Q,NMOS

* IXFH26N60Q NMOS model
.MODEL IXFH26N60Q NMOS
+ LEVEL=3
+ L=2.0000E-6
+ W=69
+ KP=1.0391E-6
+ RS=10.000E-3
+ RD=.21306
+ VTO=4.0236
+ RDS=24.000E6
+ TOX=2.0000E-6
+ CGSO=66.486E-12
+ CGDO=3.8641E-12
+ CBD=6.6821E-9
+ MJ=.91394
+ PB=.98944
+ RG=10.000E-3
+ IS=14.433E-6
+ N=2.5800
+ RB=1.0000E-9
+ GAMMA=0
+ KAPPA=0
*$
*DEVICE=IXFH28N50Q,NMOS

* IXFH28N50Q NMOS model
.MODEL IXFH28N50Q NMOS
+ LEVEL=3
+ L=2.0000E-6
+ W=88
+ KP=1.0389E-6
+ RS=10.000E-3
+ RD=.18876
+ VTO=4.5007
+ RDS=20.000E6
+ TOX=2.0000E-6
+ CGSO=9.1096E-12
+ CGDO=1.8582E-12
+ CBD=4.7672E-9
+ MJ=.65846
+ PB=.3905
+ RG=10.000E-3
+ IS=18.319E-6
+ N=2.6175
+ RB=1.0000E-9
+ GAMMA=0
+ KAPPA=0
*$
*DEVICE=IXFH32N50Q,NMOS

* IXFH32N50Q NMOS model
.MODEL IXFH32N50Q NMOS
+ LEVEL=3
+ L=2.0000E-6
+ W=83
+ KP=1.0301E-6
+ RS=10.000E-3
+ RD=.14614
+ VTO=3.7516
+ RDS=10.000E6
+ TOX=2.0000E-6
+ CGSO=33.270E-12
+ CGDO=4.0958E-12
+ CBD=7.8017E-9
+ MJ=1.1230
+ PB=1.1607
+ RG=.46745
+ IS=12.646E-6
+ N=2.5145
+ RB=1.0000E-9
+ GAMMA=0
+ KAPPA=0
*$
*DEVICE=IXFH36N55Q,NMOS

* IXFH36N55Q NMOS model
.MODEL IXFH36N55Q NMOS
+ LEVEL=3
+ L=2.0000E-6
+ W=160
+ KP=1.0632E-6
+ RS=10.000E-3
+ RD=.15469
+ VTO=4.5083
+ RDS=22.000E6
+ TOX=2.0000E-6
+ CGSO=62.500E-18
+ CGDO=1.3147E-12
+ CBD=7.7879E-9
+ MJ=.68531
+ PB=.3905
+ RG=10.000E-3
+ IS=7.46E-6
+ N=3.3396
+ RB=1.0000E-9
+ GAMMA=0
+ KAPPA=0
*$
*DEVICE=IXFH40N50Q,NMOS

* IXFH40N50Q NMOS model
.MODEL IXFH40N50Q NMOS
+ LEVEL=3
+ L=2.0000E-6
+ W=120
+ KP=1.0358E-6
+ RS=10.000E-3
+ RD=.13694
+ VTO=4.2788
+ RDS=20.000E6
+ TOX=2.0000E-6
+ CGSO=7.7686E-12
+ CGDO=1.9329E-12
+ CBD=7.7901E-9
+ MJ=.67492
+ PB=.39809
+ RG=10.000E-3
+ IS=13.423E-6
+ N=2.3871
+ RB=1.0000E-9
+ GAMMA=0
+ KAPPA=0
*$
*DEVICE=IXFH42N20,NMOS

* IXFH42N20 NMOS model
.MODEL IXFH42N20 NMOS
+ LEVEL=3
+ L=2.0000E-6
+ W=43
+ KP=1.0336E-6
+ RS=10.000E-3
+ RD=42.988E-3
+ VTO=3.2991
+ RDS=8.0000E6
+ TOX=2.0000E-6
+ CGSO=238.89E-12
+ CGDO=10.252E-12
+ CBD=3.6807E-9
+ MJ=1.0228
+ PB=3
+ RG=10.000E-3
+ IS=11.429E-6
+ N=2.3157
+ RB=1.0000E-9
+ GAMMA=0
+ KAPPA=0
*$
*DEVICE=IXFH50N20,NMOS

* IXFH50N20 NMOS model
.MODEL IXFH50N20 NMOS
+ LEVEL=3
+ L=2.0000E-6
+ W=48
+ KP=1.0287E-6
+ RS=10.000E-3
+ RD=28.522E-3
+ VTO=3.4167
+ RDS=8.0000E6
+ TOX=2.0000E-6
+ CGSO=202.03E-12
+ CGDO=9.1859E-12
+ CBD=3.6800E-9
+ MJ=1.0222
+ PB=3
+ RG=10.000E-3
+ IS=11.429E-6
+ N=2.3157
+ RB=1.0000E-9
+ GAMMA=0
+ KAPPA=0
*$
*DEVICE=IXFH58N20,NMOS

* IXFH58N20 NMOS model
.MODEL IXFH58N20 NMOS
+ LEVEL=3
+ L=2.0000E-6
+ W=58
+ KP=1.0430E-6
+ RS=10.000E-3
+ RD=24.491E-3
+ VTO=3.6288
+ RDS=8.0000E6
+ TOX=2.0000E-6
+ CGSO=154.48E-12
+ CGDO=7.6009E-12
+ CBD=3.6792E-9
+ MJ=1.0215
+ PB=3
+ RG=10.000E-3
+ IS=11.429E-6
+ N=2.3157
+ RB=1.0000E-9
+ GAMMA=0
+ KAPPA=0
*$
*DEVICE=IXFH60N20F,NMOS

* IXFH60N20F NMOS model
.MODEL IXFH60N20F NMOS
+ LEVEL=3
+ L=2.0000E-6
+ W=51
+ KP=1.0318E-6
+ RS=10.000E-3
+ RD=21.089E-3
+ VTO=3.8421
+ RDS=8.0000E6
+ TOX=2.0000E-6
+ CGSO=44.424E-12
+ CGDO=9.0158E-12
+ CBD=5.6499E-9
+ MJ=.73283
+ PB=1.2714
+ RG=10.000E-3
+ IS=19.880E-6
+ N=2.5753
+ RB=1.0000E-9
+ GAMMA=0
+ KAPPA=0
*$
*DEVICE=IXFH66N20Q,NMOS

* IXFH66N20Q NMOS model
.MODEL IXFH66N20Q NMOS
+ LEVEL=3
+ L=2.0000E-6
+ W=190
+ KP=1.0520E-6
+ RS=10.000E-3
+ RD=23.198E-3
+ VTO=3.7288
+ RDS=20.000E6
+ TOX=2.0000E-6
+ CGSO=52.632E-18
+ CGDO=2.3243E-12
+ CBD=7.0996E-9
+ MJ=.69128
+ PB=.53017
+ RG=10.000E-3
+ IS=10.876E-6
+ N=2.5407
+ RB=1.0000E-9
+ GAMMA=0
+ KAPPA=0
*$
*DEVICE=IXFH6N100F,NMOS

* IXFH6N100F NMOS model
.MODEL IXFH6N100F NMOS
+ LEVEL=3
+ L=2.0000E-6
+ W=12
+ KP=1.0339E-6
+ RS=10.000E-3
+ RD=1.8607
+ VTO=4.4264
+ RDS=40.000E6
+ TOX=2.0000E-6
+ CGSO=180.75E-12
+ CGDO=4.5008E-12
+ CBD=2.0086E-9
+ MJ=1.1373
+ PB=3
+ RG=.15275
+ IS=36.190E-6
+ N=3.2937
+ RB=1.0000E-9
+ GAMMA=0
+ KAPPA=0
*$
*DEVICE=IXFH6N100Q,NMOS

* IXFH6N100Q NMOS model
.MODEL IXFH6N100Q NMOS
+ LEVEL=3
+ L=2.0000E-6
+ W=6.9000
+ KP=1.0348E-6
+ RS=10.000E-3
+ RD=1.5001
+ VTO=4.5180
+ RDS=32.000E6
+ TOX=2.0000E-6
+ CGSO=275.68E-12
+ CGDO=9.3697E-12
+ CBD=2.5971E-9
+ MJ=.74868
+ PB=.51954
+ RG=10.000E-3
+ IS=25.026E-6
+ N=2.8001
+ RB=1.0000E-9
+ GAMMA=0
+ KAPPA=0
*$
*DEVICE=IXFJ32N50Q,NMOS

* IXFJ32N50Q NMOS model
.MODEL IXFJ32N50Q NMOS
+ LEVEL=3
+ L=2.0000E-6
+ W=83
+ KP=1.0301E-6
+ RS=10.000E-3
+ RD=.13614
+ VTO=3.7516
+ RDS=10.000E6
+ TOX=2.0000E-6
+ CGSO=33.270E-12
+ CGDO=4.0958E-12
+ CBD=7.8017E-9
+ MJ=1.1230
+ PB=1.1607
+ RG=.46745
+ IS=12.646E-6
+ N=2.5145
+ RB=1.0000E-9
+ GAMMA=0
+ KAPPA=0
*$
*DEVICE=IXFK120N20,NMOS

* IXFK120N20 NMOS model
.MODEL IXFK120N20 NMOS
+ LEVEL=3
+ L=2.0000E-6
+ W=380
+ KP=1.0340E-6
+ RS=10.000E-3
+ RD=3.6882E-3
+ VTO=3.9426
+ RDS=2.0000E6
+ TOX=2.0000E-6
+ CGSO=26.316E-18
+ CGDO=4.0478E-12
+ CBD=6.3639E-9
+ MJ=1.2063
+ PB=3
+ RG=10.000E-3
+ IS=78.723E-6
+ N=2.6043
+ RB=1.0000E-9
+ GAMMA=0
+ KAPPA=0
*$
*DEVICE=IXFK26N60Q,NMOS

* IXFK26N60Q NMOS model
.MODEL IXFK26N60Q NMOS
+ LEVEL=3
+ L=2.0000E-6
+ W=69
+ KP=1.0391E-6
+ RS=10.000E-3
+ RD=.21306
+ VTO=4.0236
+ RDS=24.000E6
+ TOX=2.0000E-6
+ CGSO=66.486E-12
+ CGDO=3.8641E-12
+ CBD=6.6821E-9
+ MJ=.91394
+ PB=.98944
+ RG=10.000E-3
+ IS=14.433E-6
+ N=2.5800
+ RB=1.0000E-9
+ GAMMA=0
+ KAPPA=0
*$

*DEVICE=IXFK27N80Q,NMOS

* IXFK27N80Q NMOS model
.MODEL IXFK27N80Q NMOS
+ LEVEL=3
+ L=2.0000E-6
+ W=150
+ KP=1.0568E-6
+ RS=10.000E-3
+ RD=.27785
+ VTO=3.9791
+ RDS=8.0000E6
+ TOX=2.0000E-6
+ CGSO=34.133E-12
+ CGDO=1.0825E-12
+ CBD=10.215E-9
+ MJ=.74849
+ PB=.47332
+ RG=10.000E-3
+ IS=50.324E-6
+ N=2.4742
+ RB=1.0000E-9
+ GAMMA=0
+ KAPPA=0
*$
*DEVICE=IXFK30N100Q2,NMOS

* IXFK30N100Q2 NMOS model
.MODEL IXFK30N100Q2 NMOS
+ LEVEL=3
+ L=2.0000E-6
+ W=140
+ KP=1.0499E-6
+ RS=10.000E-3
+ RD=.32589
+ VTO=4.8219
+ RDS=40.000E6
+ TOX=2.0000E-6
+ CGSO=26.152E-12
+ CGDO=1.1794E-12
+ CBD=9.2460E-9
+ MJ=.87287
+ PB=1.2083
+ RG=10.000E-3
+ IS=13.751E-6
+ N=2.5530
+ RB=1.0000E-9
+ GAMMA=0
+ KAPPA=0
*$
*DEVICE=IXFK32N50Q,NMOS

* IXFK32N50Q NMOS model
.MODEL IXFK32N50Q NMOS
+ LEVEL=3
+ L=2.0000E-6
+ W=83
+ KP=1.0301E-6
+ RS=10.000E-3
+ RD=.14614
+ VTO=3.7516
+ RDS=10.000E6
+ TOX=2.0000E-6
+ CGSO=33.270E-12
+ CGDO=4.0958E-12
+ CBD=7.8017E-9
+ MJ=1.1230
+ PB=1.1607
+ RG=.46745
+ IS=12.646E-6
+ N=2.5145
+ RB=1.0000E-9
+ GAMMA=0
+ KAPPA=0
*$
*DEVICE=IXFK44N50,NMOS

* IXFK44N50 NMOS model
.MODEL IXFK44N50 NMOS
+ LEVEL=3
+ L=2.0000E-6
+ W=160
+ KP=1.0672E-6
+ RS=10.000E-3
+ RD=.10804
+ VTO=3.7747
+ RDS=4.0000E6
+ TOX=2.0000E-6
+ CGSO=48.330E-12
+ CGDO=3.3730E-12
+ CBD=9.2072E-9
+ MJ=1.5000
+ PB=3
+ RG=.83975
+ IS=33.764E-6
+ N=2.7387
+ RB=1.0000E-9
+ GAMMA=0
+ KAPPA=0
*$
*DEVICE=IXFK44N50Q,NMOS

* IXFK44N50Q NMOS model
.MODEL IXFK44N50Q NMOS
+ LEVEL=3
+ L=2.0000E-6
+ W=120
+ KP=1.0486E-6
+ RS=10.000E-3
+ RD=.10703
+ VTO=4.3914
+ RDS=6.6667E6
+ TOX=2.0000E-6
+ CGSO=29.208E-12
+ CGDO=2.8659E-12
+ CBD=9.7336E-9
+ MJ=1.1957
+ PB=2.4856
+ RG=10.000E-3
+ IS=25.886E-6
+ N=2.4649
+ RB=1.0000E-9
+ GAMMA=0
+ KAPPA=0
*$
*DEVICE=IXFK48N50,NMOS

* IXFK48N50 NMOS model
.MODEL IXFK48N50 NMOS
+ LEVEL=3
+ L=2.0000E-6
+ W=160
+ KP=1.0645E-6
+ RS=10.000E-3
+ RD=88.031E-3
+ VTO=3.7732
+ RDS=4.0000E6
+ TOX=2.0000E-6
+ CGSO=48.340E-12
+ CGDO=3.3730E-12
+ CBD=9.2071E-9
+ MJ=1.5000
+ PB=3
+ RG=.84138
+ IS=33.764E-6
+ N=2.7387
+ RB=1.0000E-9
+ GAMMA=0
+ KAPPA=0
*$
*DEVICE=IXFK48N50Q,NMOS

* IXFK48N50Q NMOS model
.MODEL IXFK48N50Q NMOS
+ LEVEL=3
+ L=2.0000E-6
+ W=120
+ KP=1.0486E-6
+ RS=10.000E-3
+ RD=87.083E-3
+ VTO=4.3914
+ RDS=1.0000E6
+ TOX=2.0000E-6
+ CGSO=28.758E-12
+ CGDO=2.8664E-12
+ CBD=9.7337E-9
+ MJ=1.1956
+ PB=2.4854
+ RG=10.000E-3
+ IS=25.886E-6
+ N=2.4649
+ RB=1.0000E-9
+ GAMMA=0
+ KAPPA=0
*$
*DEVICE=IXFK60N55Q2,NMOS

* IXFK60N55Q2 NMOS model
.MODEL IXFK60N55Q2 NMOS
+ LEVEL=3
+ L=2.0000E-6
+ W=140
+ KP=1.0663E-6
+ RS=10.000E-3
+ RD=64.470E-3
+ VTO=4.3656
+ RDS=11.000E6
+ TOX=2.0000E-6
+ CGSO=21.782E-12
+ CGDO=2.5662E-12
+ CBD=9.4694E-9
+ MJ=1.0293
+ PB=3
+ RG=10.000E-3
+ IS=10.775E-6
+ N=5
+ RB=1.0000E-9
+ GAMMA=0
+ KAPPA=0
*$
*DEVICE=IXFK62N50F,NMOS

* IXFK62N50F NMOS model
.MODEL IXFK62N50F NMOS
+ LEVEL=3
+ L=2.0000E-6
+ W=210
+ KP=1.0303E-6
+ RS=10.000E-3
+ RD=65.212E-3
+ VTO=4.1537
+ RDS=20.000E6
+ TOX=2.0000E-6
+ CGSO=5.6056E-12
+ CGDO=1.7476E-12
+ CBD=6.2446E-9
+ MJ=.89116
+ PB=3
+ RG=10.000E-3
+ IS=12.130E-6
+ N=2.3390
+ RB=1.0000E-9
+ GAMMA=0
+ KAPPA=0
*$
*DEVICE=IXFK73N30Q,NMOS

* IXFK73N30Q NMOS model
.MODEL IXFK73N30Q NMOS
+ LEVEL=3
+ L=2.0000E-6
+ W=270
+ KP=1.0532E-6
+ RS=10.000E-3
+ RD=24.676E-3
+ VTO=4.2979
+ RDS=12.000E6
+ TOX=2.0000E-6
+ CGSO=37.037E-18
+ CGDO=2.4349E-12
+ CBD=5.9565E-9
+ MJ=1.5000
+ PB=3
+ RG=10.000E-3
+ IS=19.617E-6
+ N=5
+ RB=1.0000E-9
+ GAMMA=0
+ KAPPA=0
*$
*DEVICE=IXFK90N20Q,NMOS

* IXFK90N20Q NMOS model
.MODEL IXFK90N20Q NMOS
+ LEVEL=3
+ L=2.0000E-6
+ W=380
+ KP=1.0445E-6
+ RS=10.000E-3
+ RD=10.780E-3
+ VTO=4.1131
+ RDS=8.0000E6
+ TOX=2.0000E-6
+ CGSO=26.316E-18
+ CGDO=2.4628E-12
+ CBD=12.276E-9
+ MJ=.77947
+ PB=.81848
+ RG=10.000E-3
+ IS=12.952E-6
+ N=4.3907
+ RB=1.0000E-9
+ GAMMA=0
+ KAPPA=0
*$
*DEVICE=IXFM42N20,NMOS

* IXFM42N20 NMOS model
.MODEL IXFM42N20 NMOS
+ LEVEL=3
+ L=2.0000E-6
+ W=43
+ KP=1.0336E-6
+ RS=10.000E-3
+ RD=42.988E-3
+ VTO=3.2991
+ RDS=8.0000E6
+ TOX=2.0000E-6
+ CGSO=238.89E-12
+ CGDO=10.252E-12
+ CBD=3.6807E-9
+ MJ=1.0228
+ PB=3
+ RG=10.000E-3
+ IS=11.429E-6
+ N=2.3157
+ RB=1.0000E-9
+ GAMMA=0
+ KAPPA=0
*$
*DEVICE=IXFM50N20,NMOS

* IXFM50N20 NMOS model
.MODEL IXFM50N20 NMOS
+ LEVEL=3
+ L=2.0000E-6
+ W=48
+ KP=1.0287E-6
+ RS=10.000E-3
+ RD=28.522E-3
+ VTO=3.4167
+ RDS=8.0000E6
+ TOX=2.0000E-6
+ CGSO=202.03E-12
+ CGDO=9.1859E-12
+ CBD=3.6800E-9
+ MJ=1.0222
+ PB=3
+ RG=10.000E-3
+ IS=11.429E-6
+ N=2.3157
+ RB=1.0000E-9
+ GAMMA=0
+ KAPPA=0
*$
*DEVICE=IXFN120N20,NMOS

* IXFN120N20 NMOS model
.MODEL IXFN120N20 NMOS
+ LEVEL=3
+ L=2.0000E-6
+ W=380
+ KP=1.0340E-6
+ RS=10.000E-3
+ RD=5.9382E-3
+ VTO=3.9426
+ RDS=2.0000E6
+ TOX=2.0000E-6
+ CGSO=26.316E-18
+ CGDO=4.2055E-12
+ CBD=6.3389E-9
+ MJ=1.2365
+ PB=3
+ RG=10.000E-3
+ IS=78.723E-6
+ N=2.6043
+ RB=1.0000E-9
+ GAMMA=0
+ KAPPA=0
*$
*DEVICE=IXFN120N25,NMOS

* IXFN120N25 NMOS model
.MODEL IXFN120N25 NMOS
+ LEVEL=3
+ L=2.0000E-6
+ W=330
+ KP=1.0256E-6
+ RS=10.000E-3
+ RD=5.5901E-3
+ VTO=3.4091
+ RDS=50.000E6
+ TOX=2.0000E-6
+ CGSO=10.006E-12
+ CGDO=4.3495E-12
+ CBD=7.3598E-9
+ MJ=1.5000
+ PB=3
+ RG=5.1820
+ IS=68.194E-6
+ N=2.7301
+ RB=1.0000E-9
+ GAMMA=0
+ KAPPA=0
*$
*DEVICE=IXFN32N120,NMOS

* IXFN32N120 NMOS model
.MODEL IXFN32N120 NMOS
+ LEVEL=3
+ L=2.0000E-6
+ W=160
+ KP=1.0177E-6
+ RS=10.000E-3
+ RD=.32414
+ VTO=4.0141
+ RDS=24.000E6
+ TOX=2.0000E-6
+ CGSO=6.1247E-12
+ CGDO=802.75E-15
+ CBD=21.675E-9
+ MJ=.93587
+ PB=.51623
+ RG=10.000E-3
+ IS=2.7149E-6
+ N=5
+ RB=1.0000E-9
+ GAMMA=0
+ KAPPA=0
*$
*DEVICE=IXFN36N100,NMOS

* IXFN36N100 NMOS model
.MODEL IXFN36N100 NMOS
+ LEVEL=3
+ L=2.0000E-6
+ W=52
+ KP=1.0353E-6
+ RS=10.000E-3
+ RD=.22254
+ VTO=4.7737
+ RDS=10.000E6
+ TOX=2.0000E-6
+ CGSO=208.54E-12
+ CGDO=7.5038E-12
+ CBD=23.424E-9
+ MJ=1.5000
+ PB=3
+ RG=10.000E-3
+ IS=8.8150E-6
+ N=2.2584
+ RB=1.0000E-9
+ GAMMA=0
+ KAPPA=0
*$
*DEVICE=IXFN38N100Q2,NMOS

* IXFN38N100Q2 NMOS model
.MODEL IXFN38N100Q2 NMOS
+ LEVEL=3
+ L=2.0000E-6
+ W=210
+ KP=1.0490E-6
+ RS=10.000E-3
+ RD=.22637
+ VTO=4.2268
+ RDS=200.00E6
+ TOX=2.0000E-6
+ CGSO=22.636E-12
+ CGDO=1.0755E-12
+ CBD=7.0204E-9
+ MJ=1.0054
+ PB=3
+ RG=5.8559
+ IS=52.458E-6
+ N=2.8506
+ RB=1.0000E-9
+ GAMMA=0
+ KAPPA=0
*$
*DEVICE=IXFN44N50,NMOS

* IXFN44N50 NMOS model
.MODEL IXFN44N50 NMOS
+ LEVEL=3
+ L=2.0000E-6
+ W=160
+ KP=1.0672E-6
+ RS=10.000E-3
+ RD=.10804
+ VTO=3.7747
+ RDS=4.0000E6
+ TOX=2.0000E-6
+ CGSO=48.330E-12
+ CGDO=3.3730E-12
+ CBD=9.2072E-9
+ MJ=1.5000
+ PB=3
+ RG=.83975
+ IS=33.764E-6
+ N=2.7387
+ RB=1.0000E-9
+ GAMMA=0
+ KAPPA=0
*$
*DEVICE=IXFN48N50,NMOS

* IXFN48N50 NMOS model
.MODEL IXFN48N50 NMOS
+ LEVEL=3
+ L=2.0000E-6
+ W=160
+ KP=1.0672E-6
+ RS=10.000E-3
+ RD=.10804
+ VTO=3.7747
+ RDS=4.0000E6
+ TOX=2.0000E-6
+ CGSO=48.330E-12
+ CGDO=3.3730E-12
+ CBD=9.2072E-9
+ MJ=1.5000
+ PB=3
+ RG=.83975
+ IS=33.764E-6
+ N=2.7387
+ RB=1.0000E-9
+ GAMMA=0
+ KAPPA=0
*$
*DEVICE=IXFN50N80Q2,NMOS

* IXFN50N80Q2 NMOS model
.MODEL IXFN50N80Q2 NMOS
+ LEVEL=3
+ L=2.0000E-6
+ W=370
+ KP=1.0296E-6
+ RS=10.000E-3
+ RD=.13696
+ VTO=4.4266
+ RDS=16.000E6
+ TOX=2.0000E-6
+ CGSO=27.027E-18
+ CGDO=816.78E-15
+ CBD=7.1623E-9
+ MJ=.90856
+ PB=3
+ RG=10.000E-3
+ IS=41.392E-6
+ N=2.7498
+ RB=1.0000E-9
+ GAMMA=0
+ KAPPA=0
*$
*DEVICE=IXFN70N60Q2,NMOS

* IXFN70N60Q2 NMOS model
.MODEL IXFN70N60Q2 NMOS
+ LEVEL=3
+ L=2.0000E-6
+ W=310
+ KP=1.0440E-6
+ RS=10.000E-3
+ RD=70.852E-3
+ VTO=4.1750
+ RDS=24.000E6
+ TOX=2.0000E-6
+ CGSO=3.3112E-12
+ CGDO=1.3430E-12
+ CBD=7.2570E-9
+ MJ=.88403
+ PB=3
+ RG=10.000E-3
+ IS=5.2982E-6
+ N=2.2894
+ RB=1.0000E-9
+ GAMMA=0
+ KAPPA=0
*$
*DEVICE=IXFN72N55Q2,NMOS

* IXFN72N55Q2 NMOS model
.MODEL IXFN72N55Q2 NMOS
+ LEVEL=3
+ L=2.0000E-6
+ W=280
+ KP=1.0445E-6
+ RS=10.000E-3
+ RD=.67747
+ VTO=4.7504
+ RDS=11.000E6
+ TOX=2.0000E-6
+ CGSO=8.0415E-12
+ CGDO=1.6066E-12
+ CBD=11.745E-9
+ MJ=.75237
+ PB=1.1977
+ RG=10.000E-3
+ IS=11.365E-6
+ N=1.9927
+ RB=1.0000E-9
+ GAMMA=0
+ KAPPA=0
*$
*DEVICE=IXFN80N50Q2,NMOS

* IXFN80N50Q2 NMOS model
.MODEL IXFN80N50Q2 NMOS
+ LEVEL=3
+ L=2.0000E-6
+ W=410
+ KP=1.0322E-6
+ RS=10.000E-3
+ RD=48.999E-3
+ VTO=4.8591
+ RDS=10.000E6
+ TOX=2.0000E-6
+ CGSO=24.390E-18
+ CGDO=1.2181E-12
+ CBD=13.426E-9
+ MJ=1.5000
+ PB=3
+ RG=10.000E-3
+ IS=81.260E-6
+ N=2.7566
+ RB=1.0000E-9
+ GAMMA=0
+ KAPPA=0
*$
*DEVICE=IXFQ38N80Q2,NMOS

* IXFQ38N80Q2 NMOS model
.MODEL IXFQ38N80Q2 NMOS
+ LEVEL=3
+ L=2.0000E-6
+ W=300
+ KP=1.0509E-6
+ RS=10.000E-3
+ RD=.174
+ VTO=4.9153
+ RDS=16.000E6
+ TOX=2.0000E-6
+ CGSO=33.333E-18
+ CGDO=729.25E-15
+ CBD=10.068E-9
+ MJ=.8463
+ PB=1.2300
+ RG=10.000E-3
+ IS=260.40E-9
+ N=1.6888
+ RB=1.0000E-9
+ GAMMA=0
+ KAPPA=0
*$
*DEVICE=IXFT17N80Q,NMOS

* IXFT17N80Q NMOS model
.MODEL IXFT17N80Q NMOS
+ LEVEL=3
+ L=2.0000E-6
+ W=50
+ KP=1.0392E-6
+ RS=10.000E-3
+ RD=.48861
+ VTO=3.8688
+ RDS=32.000E6
+ TOX=2.0000E-6
+ CGSO=45.378E-12
+ CGDO=2.1845E-12
+ CBD=4.4928E-9
+ MJ=.69928
+ PB=.3905
+ RG=10.000E-4
+ IS=3.65E-6
+ N=3.6831
+ RB=1.0000E-9
+ GAMMA=0
+ KAPPA=0
*$
*DEVICE=IXFT20N60Q,NMOS

* IXFT20N60Q NMOS model
.MODEL IXFT20N60Q NMOS
+ LEVEL=3
+ L=2.0000E-6
+ W=43
+ KP=1.0403E-6
+ RS=10.000E-3
+ RD=.28415
+ VTO=4.5845
+ RDS=24.000E6
+ TOX=2.0000E-6
+ CGSO=47.392E-12
+ CGDO=3.3959E-12
+ CBD=3.5864E-9
+ MJ=.8456
+ PB=1.1302
+ RG=10.000E-3
+ IS=2.47E-6
+ N=3.2641
+ RB=1.0000E-9
+ GAMMA=0
+ KAPPA=0
*$
*DEVICE=IXFT21N50Q,NMOS

* IXFT21N50Q NMOS model
.MODEL IXFT21N50Q NMOS
+ LEVEL=3
+ L=2.0000E-6
+ W=64
+ KP=1.0374E-6
+ RS=10.000E-3
+ RD=.21715
+ VTO=4.4900
+ RDS=20.000E6
+ TOX=2.0000E-6
+ CGSO=15.984E-12
+ CGDO=2.3678E-12
+ CBD=4.7571E-9
+ MJ=.69199
+ PB=.3905
+ RG=1.0184
+ IS=31.503E-6
+ N=2.5305
+ RB=1.0000E-9
+ GAMMA=0
+ KAPPA=0
*$
*DEVICE=IXFT23N60Q,NMOS

* IXFT23N60Q NMOS model
.MODEL IXFT23N60Q NMOS
+ LEVEL=3
+ L=2.0000E-6
+ W=64
+ KP=1.0436E-6
+ RS=10.000E-3
+ RD=.2743
+ VTO=4.4478
+ RDS=24.000E6
+ TOX=2.0000E-6
+ CGSO=24.725E-12
+ CGDO=2.3431E-12
+ CBD=4.5201E-9
+ MJ=.66214
+ PB=.3905
+ RG=10.000E-3
+ IS=4.75E-6
+ N=3.3032
+ RB=1.0000E-9
+ GAMMA=0
+ KAPPA=0
*$
*DEVICE=IXFT23N80Q,NMOS

* IXFT23N80Q NMOS model
.MODEL IXFT23N80Q NMOS
+ LEVEL=3
+ L=2.0000E-6
+ W=220
+ KP=1.0349E-6
+ RS=10.000E-3
+ RD=.39916
+ VTO=4.7071
+ RDS=32.000E6
+ TOX=2.0000E-6
+ CGSO=45.455E-18
+ CGDO=620.89E-15
+ CBD=6.7972E-9
+ MJ=.72622
+ PB=.3905
+ RG=10.000E-3
+ IS=18.911E-6
+ N=2.5997
+ RB=1.0000E-9
+ GAMMA=0
+ KAPPA=0
*$
*DEVICE=IXFT26N60Q,NMOS

* IXFT26N60Q NMOS model
.MODEL IXFT26N60Q NMOS
+ LEVEL=3
+ L=2.0000E-6
+ W=69
+ KP=1.0391E-6
+ RS=10.000E-3
+ RD=.21306
+ VTO=4.0236
+ RDS=24.000E6
+ TOX=2.0000E-6
+ CGSO=66.486E-12
+ CGDO=3.8641E-12
+ CBD=6.6821E-9
+ MJ=.91394
+ PB=.98944
+ RG=10.000E-3
+ IS=14.433E-6
+ N=2.5800
+ RB=1.0000E-9
+ GAMMA=0
+ KAPPA=0
*$
*DEVICE=IXFT28N50Q,NMOS

* IXFT28N50Q NMOS model
.MODEL IXFT28N50Q NMOS
+ LEVEL=3
+ L=2.0000E-6
+ W=88
+ KP=1.0389E-6
+ RS=10.000E-3
+ RD=.18876
+ VTO=4.5007
+ RDS=20.000E6
+ TOX=2.0000E-6
+ CGSO=9.1096E-12
+ CGDO=1.8582E-12
+ CBD=4.7672E-9
+ MJ=.65846
+ PB=.3905
+ RG=10.000E-3
+ IS=18.319E-6
+ N=2.6175
+ RB=1.0000E-9
+ GAMMA=0
+ KAPPA=0
*$
*DEVICE=IXFT32N50Q,NMOS

* IXFT32N50Q NMOS model
.MODEL IXFT32N50Q NMOS
+ LEVEL=3
+ L=2.0000E-6
+ W=83
+ KP=1.0301E-6
+ RS=10.000E-3
+ RD=.14614
+ VTO=3.7516
+ RDS=10.000E6
+ TOX=2.0000E-6
+ CGSO=33.270E-12
+ CGDO=4.0958E-12
+ CBD=7.8017E-9
+ MJ=1.1230
+ PB=1.1607
+ RG=.46745
+ IS=12.646E-6
+ N=2.5145
+ RB=1.0000E-9
+ GAMMA=0
+ KAPPA=0
*$
*DEVICE=IXFT36N55Q,NMOS

* IXFT36N55Q NMOS model
.MODEL IXFT36N55Q NMOS
+ LEVEL=3
+ L=2.0000E-6
+ W=120
+ KP=1.0707E-6
+ RS=10.000E-3
+ RD=.15399
+ VTO=4.4094
+ RDS=22.000E6
+ TOX=2.0000E-6
+ CGSO=9.8834E-12
+ CGDO=1.7203E-12
+ CBD=5.9220E-9
+ MJ=.69248
+ PB=.64676
+ RG=10.000E-3
+ IS=7.21E-6
+ N=2.8070
+ RB=1.0000E-9
+ GAMMA=0
+ KAPPA=0
*$
*DEVICE=IXFT40N50Q,NMOS

* IXFT40N50Q NMOS model
.MODEL IXFT40N50Q NMOS
+ LEVEL=3
+ L=2.0000E-6
+ W=120
+ KP=1.0358E-6
+ RS=10.000E-3
+ RD=.13694
+ VTO=4.2788
+ RDS=20.000E6
+ TOX=2.0000E-6
+ CGSO=7.7686E-12
+ CGDO=1.9329E-12
+ CBD=7.7901E-9
+ MJ=.67492
+ PB=.39809
+ RG=10.000E-3
+ IS=13.423E-6
+ N=2.3871
+ RB=1.0000E-9
+ GAMMA=0
+ KAPPA=0
*$
*DEVICE=IXFT50N20,NMOS

* IXFT50N20 NMOS model
.MODEL IXFT50N20 NMOS
+ LEVEL=3
+ L=2.0000E-6
+ W=53
+ KP=1.0324E-6
+ RS=10.000E-3
+ RD=29.056E-3
+ VTO=3.5263
+ RDS=8.0000E6
+ TOX=2.0000E-6
+ CGSO=178.04E-12
+ CGDO=8.3169E-12
+ CBD=3.6797E-9
+ MJ=1.0220
+ PB=3
+ RG=10.000E-3
+ IS=11.429E-6
+ N=2.3157
+ RB=1.0000E-9
+ GAMMA=0
+ KAPPA=0
*$
*DEVICE=IXFT58N20,NMOS

* IXFT58N20 NMOS model
.MODEL IXFT58N20 NMOS
+ LEVEL=3
+ L=2.0000E-6
+ W=58
+ KP=1.0430E-6
+ RS=10.000E-3
+ RD=24.491E-3
+ VTO=3.6288
+ RDS=8.0000E6
+ TOX=2.0000E-6
+ CGSO=154.48E-12
+ CGDO=7.6009E-12
+ CBD=3.6792E-9
+ MJ=1.0215
+ PB=3
+ RG=10.000E-3
+ IS=11.429E-6
+ N=2.3157
+ RB=1.0000E-9
+ GAMMA=0
+ KAPPA=0

*DEVICE=IXFT60N20F,NMOS

* IXFT60N20F NMOS model
.MODEL IXFT60N20F NMOS
+ LEVEL=3
+ L=2.0000E-6
+ W=51
+ KP=1.0318E-6
+ RS=10.000E-3
+ RD=21.089E-3
+ VTO=3.8421
+ RDS=8.0000E6
+ TOX=2.0000E-6
+ CGSO=44.424E-12
+ CGDO=9.0158E-12
+ CBD=5.6499E-9
+ MJ=.73283
+ PB=1.2714
+ RG=10.000E-3
+ IS=19.880E-6
+ N=2.5753
+ RB=1.0000E-9
+ GAMMA=0
+ KAPPA=0
*$
*DEVICE=IXFT66N20Q,NMOS

* IXFT66N20Q NMOS model
.MODEL IXFT66N20Q NMOS
+ LEVEL=3
+ L=2.0000E-6
+ W=190
+ KP=1.0520E-6
+ RS=10.000E-3
+ RD=23.198E-3
+ VTO=3.7288
+ RDS=20.000E6
+ TOX=2.0000E-6
+ CGSO=52.632E-18
+ CGDO=2.3243E-12
+ CBD=7.0996E-9
+ MJ=.69128
+ PB=.53017
+ RG=10.000E-3
+ IS=10.876E-6
+ N=2.5407
+ RB=1.0000E-9
+ GAMMA=0
+ KAPPA=0
*$
*DEVICE=IXFT6N100F,NMOS

* IXFT6N100F NMOS model
.MODEL IXFT6N100F NMOS
+ LEVEL=3
+ L=2.0000E-6
+ W=12
+ KP=1.0339E-6
+ RS=10.000E-3
+ RD=1.8607
+ VTO=4.4264
+ RDS=40.000E6
+ TOX=2.0000E-6
+ CGSO=180.75E-12
+ CGDO=4.5008E-12
+ CBD=2.0086E-9
+ MJ=1.1373
+ PB=3
+ RG=.15275
+ IS=36.190E-6
+ N=3.2937
+ RB=1.0000E-9
+ GAMMA=0
+ KAPPA=0
*$
*DEVICE=IXFT6N100Q,NMOS

* IXFT6N100Q NMOS model
.MODEL IXFT6N100Q NMOS
+ LEVEL=3
+ L=2.0000E-6
+ W=6.9000
+ KP=1.0348E-6
+ RS=10.000E-3
+ RD=1.5001
+ VTO=4.5180
+ RDS=32.000E6
+ TOX=2.0000E-6
+ CGSO=275.68E-12
+ CGDO=9.3697E-12
+ CBD=2.5971E-9
+ MJ=.74868
+ PB=.51954
+ RG=10.000E-3
+ IS=25.026E-6
+ N=2.8001
+ RB=1.0000E-9
+ GAMMA=0
+ KAPPA=0
*$
*DEVICE=IXFX120N20,NMOS

* IXFX120N20 NMOS model
.MODEL IXFX120N20 NMOS
+ LEVEL=3
+ L=2.0000E-6
+ W=380
+ KP=1.0340E-6
+ RS=10.000E-3
+ RD=3.6882E-3
+ VTO=3.9426
+ RDS=2.0000E6
+ TOX=2.0000E-6
+ CGSO=26.316E-18
+ CGDO=4.0478E-12
+ CBD=6.3639E-9
+ MJ=1.2063
+ PB=3
+ RG=10.000E-3
+ IS=78.723E-6
+ N=2.6043
+ RB=1.0000E-9
+ GAMMA=0
+ KAPPA=0
*$
*DEVICE=IXFX26N60Q,NMOS

* IXFX26N60Q NMOS model
.MODEL IXFX26N60Q NMOS
+ LEVEL=3
+ L=2.0000E-6
+ W=69
+ KP=1.0391E-6
+ RS=10.000E-3
+ RD=.21306
+ VTO=4.0236
+ RDS=24.000E6
+ TOX=2.0000E-6
+ CGSO=66.486E-12
+ CGDO=3.8641E-12
+ CBD=6.6821E-9
+ MJ=.91394
+ PB=.98944
+ RG=10.000E-3
+ IS=14.433E-6
+ N=2.5800
+ RB=1.0000E-9
+ GAMMA=0
+ KAPPA=0
*$

*DEVICE=IXFX27N80Q,NMOS

* IXFX27N80Q NMOS model
.MODEL IXFX27N80Q NMOS
+ LEVEL=3
+ L=2.0000E-6
+ W=150
+ KP=1.0568E-6
+ RS=10.000E-3
+ RD=.27785
+ VTO=3.9791
+ RDS=8.0000E6
+ TOX=2.0000E-6
+ CGSO=34.133E-12
+ CGDO=1.0825E-12
+ CBD=10.215E-9
+ MJ=.74849
+ PB=.47332
+ RG=10.000E-3
+ IS=50.324E-6
+ N=2.4742
+ RB=1.0000E-9
+ GAMMA=0
+ KAPPA=0
*$
*DEVICE=IXFX32N50Q,NMOS

* IXFX32N50Q NMOS model
.MODEL IXFX32N50Q NMOS
+ LEVEL=3
+ L=2.0000E-6
+ W=83
+ KP=1.0301E-6
+ RS=10.000E-3
+ RD=.14614
+ VTO=3.7516
+ RDS=10.000E6
+ TOX=2.0000E-6
+ CGSO=33.270E-12
+ CGDO=4.0958E-12
+ CBD=7.8017E-9
+ MJ=1.1230
+ PB=1.1607
+ RG=.46745
+ IS=12.646E-6
+ N=2.5145
+ RB=1.0000E-9
+ GAMMA=0
+ KAPPA=0
*$
*DEVICE=IXFX38N80Q2,NMOS

* IXFX38N80Q2 NMOS model
.MODEL IXFX38N80Q2 NMOS
+ LEVEL=3
+ L=2.0000E-6
+ W=180
+ KP=1.0415E-6
+ RS=10.000E-3
+ RD=.17329
+ VTO=4.4921
+ RDS=16.000E6
+ TOX=2.0000E-6
+ CGSO=13.340E-12
+ CGDO=1.2325E-12
+ CBD=10.065E-9
+ MJ=.8474
+ PB=1.2319
+ RG=10.000E-3
+ IS=260.40E-9
+ N=1.6888
+ RB=1.0000E-9
+ GAMMA=0
+ KAPPA=0
*$
*DEVICE=IXFX44N50Q,NMOS

* IXFX44N50Q NMOS model
.MODEL IXFX44N50Q NMOS
+ LEVEL=3
+ L=2.0000E-6
+ W=120
+ KP=1.0486E-6
+ RS=10.000E-3
+ RD=.10703
+ VTO=4.3914
+ RDS=6.6667E6
+ TOX=2.0000E-6
+ CGSO=29.208E-12
+ CGDO=2.8659E-12
+ CBD=9.7336E-9
+ MJ=1.1957
+ PB=2.4856
+ RG=10.000E-3
+ IS=25.886E-6
+ N=2.4649
+ RB=1.0000E-9
+ GAMMA=0
+ KAPPA=0
*$
*DEVICE=IXFX48N50Q,NMOS

* IXFX48N50Q NMOS model
.MODEL IXFX48N50Q NMOS
+ LEVEL=3
+ L=2.0000E-6
+ W=120
+ KP=1.0486E-6
+ RS=10.000E-3
+ RD=87.083E-3
+ VTO=4.3914
+ RDS=1.0000E6
+ TOX=2.0000E-6
+ CGSO=28.758E-12
+ CGDO=2.8664E-12
+ CBD=9.7337E-9
+ MJ=1.1956
+ PB=2.4854
+ RG=10.000E-3
+ IS=25.886E-6
+ N=2.4649
+ RB=1.0000E-9
+ GAMMA=0
+ KAPPA=0
*$
*DEVICE=IXFX60N55Q2,NMOS

* IXFX60N55Q2 NMOS model
.MODEL IXFX60N55Q2 NMOS
+ LEVEL=3
+ L=2.0000E-6
+ W=140
+ KP=1.0663E-6
+ RS=10.000E-3
+ RD=64.470E-3
+ VTO=4.3656
+ RDS=11.000E6
+ TOX=2.0000E-6
+ CGSO=21.782E-12
+ CGDO=2.5662E-12
+ CBD=9.4694E-9
+ MJ=1.0293
+ PB=3
+ RG=10.000E-3
+ IS=8.775E-6
+ N=5
+ RB=1.0000E-9
+ GAMMA=0
+ KAPPA=0
*$