*****
* JDIODE.LIB Spectrum Software Bill Steele
*****
*** Switching Diode
.MODEL 1S1146 D (IS=3n N=1.967622 BV=35 IBV=100.000001p RS=1.207969 TT=5u
+ CJO=2.318281p VJ=2.392428 M=300m EG=1.11 RL=1.000000E+020)
*** Switching Diode
.MODEL 1S1147 D (IS=2.5n N=1.939608 BV=30 IBV=100.000001p RS=1.24338
+ TT=9.954596n CJO=2.253023p VJ=3.044623 M=300m EG=1.11 RL=1.000000E+020)
*** Switching Diode
.MODEL 1S2074 D (IS=4.191551n N=1.880228 BV=45 IBV=100.000001p TT=5.77078n
+ CJO=1.722887p VJ=16.402834 M=300m EG=1.11 RL=49.990621G)
*** Switching Diode
.MODEL 1S2075 D (IS=7.5n N=1.896865 BV=30 IBV=100.000001p RS=1.361545
+ TT=11.54156n CJO=1.722887p VJ=16.402834 M=300m EG=1.11 RL=1.000000E+020)
*** Switching Diode
.MODEL 1S2076 D (IS=2.238961n N=1.789455 BV=30 IBV=100.000001p RS=708.257074m
+ TT=11.54156n CJO=1.775385p VJ=12.253096 M=300m EG=1.11 RL=2.110034G)
*** Switching Diode
.MODEL 1S2076A D (IS=11n N=1.965414 BV=60 IBV=100.000001p RS=897.473648m
+ TT=11.54156n CJO=1.928822p VJ=10.339823 M=300m EG=1.11 RL=1.000000E+020)
*** Switching Diode
.MODEL 1S2134 D (IS=4.5n N=1.854286 BV=30 IBV=100.000001p RS=2.370578
+ TT=10.098865n CJO=1.413632p VJ=31.022386 M=300m EG=1.11 RL=1.000000E+020)
*** Switching Diode
.MODEL 1S2135 D (IS=11.418082n N=1.871898 BV=60 IBV=100.000001p RS=7.743695
+ TT=10.098865n CJO=2.08368p VJ=99.882452 M=1.217979 EG=1.11 RL=7.287483G)
*** Switching Diode
.MODEL 1S2348 D (IS=11.091592n N=1.84135 BV=65 IBV=100.000001p RS=864.00288m
+ TT=11.54156n CJO=2.283001p VJ=45.666061 M=303.116434m EG=1.11 RL=1G)
*** Switching Diode
.MODEL 1SS81 D (IS=10n N=1.943324 BV=150 IBV=100.000001p RS=3.566412
+ TT=144.269506n CJO=1.110247p VJ=12.604079 M=300m EG=1.11 RL=1.000000E+020)
*** Switching Diode
.MODEL 1SS82 D (IS=11n N=1.961195 BV=200 IBV=100.000001p RS=3.476424
+ TT=144.269506n CJO=1.13754p VJ=8.451961 M=300m EG=1.11 RL=1.000000E+020)
*** Switching Diode
.MODEL 1SS83 D (IS=8.244501n N=1.911441 BV=250 IBV=100.000001p RS=3.666225
+ TT=144.269506n CJO=1.140933p VJ=7.758076 M=300m EG=1.11 RL=25.597716G)
*** Switching Diode
.MODEL 1SS84 D (IS=755.338923p N=1.700595 BV=70 IBV=100.000001p RS=1.701052
+ TT=72.134753n CJO=3.393911p VJ=701.170763m M=300m EG=1.11 RL=22.961665G)
*** Switching Diode
.MODEL 1SS118 D (IS=16.587658n N=1.915324 BV=50 IBV=100.000001p RS=962.955292m
+ TT=4.328085n CJO=2.283591p VJ=44.967919 M=300m EG=1.11 RL=1G)
*** Switching Diode
.MODEL 1SS119 D (IS=2.588806n N=1.813913 BV=30 IBV=100.000001p RS=633.599628m
+ TT=5.049433n CJO=1.83005p VJ=17.701182 M=300m EG=1.11 RL=2.564507G)
*** Switching Diode
.MODEL 1SS120 D (IS=1.619993n N=1.748106 BV=60 IBV=100.000001p RS=761.182509m
+ TT=5.049433n CJO=1.83005p VJ=17.701182 M=300m EG=1.11 RL=4.087636G)
*** Switching Diode
.MODEL 1SS149 D (IS=190.962365p N=1.677969 BV=200 IBV=100.000001p TT=7.213475u
+ CJO=3.518931p VJ=17.530169 M=894.288496m EG=1.11 RL=972.335484G)
*** Switching Diode
.MODEL 1SS173 D (IS=401.20132p N=1.572412 BV=30 IBV=100.000001p RS=1.698978
+ TT=17.312341n CJO=1.984096p VJ=6.487853 M=300m EG=1.11 RL=2.325906G)
*** Switching Diode
.MODEL 1SS175 D (IS=1.274809p N=1.324336 BV=50 IBV=100.000001p RS=1.964886
+ TT=28.853901n CJO=3.160244p VJ=1.449525 M=300.00302m EG=1.11 RL=10.533384G)
*** Switching Diode
.MODEL 1SS175A D (IS=1.441558p N=1.332387 BV=75 IBV=100.000001p RS=1.914369
+ TT=28.853901n CJO=3.252079p VJ=1.163909 M=300.094971m EG=1.11 RL=10.534309G)
*** Switching Diode
.MODEL 1SS270 D (IS=2.23554n N=1.799559 BV=30 IBV=100.000001p RS=1.419598
+ TT=5.049433n CJO=1.433122p VJ=12.386545 M=300m EG=1.11 RL=1G)
*** Switching Diode
.MODEL 1SS270A D (IS=1.132994n N=1.7239 BV=60 IBV=100.000001p RS=2.020534
+ TT=5.049433n CJO=1.433122p VJ=12.386545 M=300m EG=1.11 RL=1G)
*** Switching Diode
.MODEL HSS81 D (IS=10.5n N=1.961427 BV=150 IBV=100.000001p RS=3.334454
+ TT=144.269506n CJO=1.140933p VJ=7.758076 M=300m EG=1.11 RL=1.000000E+020)
*** Switching Diode
.MODEL HSS82 D (IS=11n N=1.962578 BV=200 IBV=100.000001p RS=3.46069
+ TT=144.269506n CJO=1.140933p VJ=7.758076 M=300m EG=1.11 RL=1.000000E+020)
*** Switching Diode
.MODEL HSS83 D (IS=11n N=1.970798 BV=250 IBV=100.000001p RS=3.285455
+ TT=144.269506n CJO=1.140933p VJ=7.758075 M=300m EG=1.11 RL=1.000000E+020)
*** Switching Diode
.MODEL HSS104 D (IS=2.3n N=1.758376 BV=35 IBV=100.000001p RS=3.144092
+ TT=4.328085n CJO=1.002808p VJ=23.031172 M=300m EG=1.11 RL=1.000000E+020)
*** Switching Diode
.MODEL HSK83 D (IS=10n N=2.065305 BV=250 IBV=100.000001p RS=2.515538
+ TT=144.269506n CJO=1.140933p VJ=7.758076 M=300m EG=1.11 RL=1.000000E+020)
*** Switching Diode
.MODEL HSK120 D (IS=1.7098n N=1.743635 BV=60 IBV=100.000001p RS=1.528657
+ TT=4.328085n CJO=1.749475p VJ=8.783219 M=300m EG=1.11 RL=3.339879G)
*** Switching Diode
.MODEL HSK122 D (IS=740.675295p N=1.790543 BV=400 IBV=100.000001p
+ RS=231.516359m TT=14.42695u CJO=2.420765p VJ=2.667862 M=300m EG=1.11
+ RL=1.000000E+020)
*** Switching Diode
.MODEL HSM83 D (IS=5.5n N=1.965041 BV=250 IBV=100.000001p RS=584.854323m
+ TT=144.269506n CJO=917.199892f VJ=1.503499 M=300m EG=1.11 RL=1.000000E+020)
*** Switching Diode
.MODEL HSM122 D (IS=0.021051f N=904.420712m BV=400 IBV=100.000001p
+ RS=172.196931 TT=14.42695u CJO=3.307551p VJ=700m M=415.785502m EG=1.11
+ RL=7.69232T)
*** Switching Diode
.MODEL HSM221C D (IS=8.8n N=1.982256 BV=80 IBV=100.000001p RS=3.17267
+ TT=4.328085n CJO=933.974445f VJ=11.070797 M=300m EG=1.11 RL=1.000000E+020)
*** Switching Diode
.MODEL HSM223C D (IS=7.02192n N=1.945669 BV=80 IBV=100.000001p RS=2.555546
+ TT=4.328085n CJO=929.104003f VJ=13.945454 M=300.000434m EG=1.11 RL=11.192894G)
*** Switching Diode
.MODEL HSU83 D (IS=6n N=1.981631 BV=250 IBV=100.000001p RS=307.213545m
+ TT=144.269506n CJO=917.73797f VJ=1.644178 M=300m EG=1.11 RL=1.000000E+020)
*** Microwave Detector/Mixer
.MODEL 1SS86 D (IS=9.713333u N=1.499412 BV=3 IBV=100.000001p RS=14.787376
+ CJO=820.634142f VJ=1.213008 M=321.472451m EG=690m XTI=2 RL=239.693199K)
*** Microwave Detector/Mixer
.MODEL 1SS87 D (IS=243.300828p N=995.313142m BV=3 IBV=100.000001p RS=11.972784
+ CJO=766.345843f VJ=2.422623 M=303.702113m EG=690m XTI=2 RL=2.193685MEG)
*** Microwave Detector/Mixer
.MODEL 1SS88 D (IS=41.981115f N=645.289516m BV=10 IBV=100.000001p RS=13.335254
+ CJO=1.041072p VJ=5.194333 M=300m EG=690m XTI=2 RL=540.543595MEG)
*** Microwave Detector/Mixer
.MODEL 1SS106 D (IS=4.7u N=2.019495 BV=10 IBV=100.000001p RS=45.96277
+ CJO=1.159343p VJ=3.465801 M=300m EG=690m XTI=2 RL=1.000000E+020)
*** Microwave Detector/Mixer
.MODEL 1SS108 D (IS=6.401524u N=1.060929 BV=30 IBV=100.000001p RS=69.721578
+ CJO=1.515237p VJ=2.921581 M=300m EG=690m XTI=2 RL=135.872383K)
*** Microwave Detector/Mixer
.MODEL 1SS151 D (IS=10u N=1.573297 BV=3 IBV=100.000001p RS=3.805206
+ CJO=1.380952p VJ=1.674988 M=300m EG=690m XTI=2 RL=250K)
*** Microwave Detector/Mixer
.MODEL 1SS165 D (IS=558.3009p N=1.0637 BV=10 IBV=100.000001p RS=11.953142
+ CJO=923.184161f VJ=6.137844 M=317.396885m EG=690m XTI=2 RL=584.650076MEG)
*** Microwave Detector/Mixer
.MODEL 1SS166 D (IS=340.937809p N=1.051224 BV=10 IBV=100.000001p RS=11.79643
+ CJO=911.259292f VJ=25.159124 M=999.727759m EG=690m XTI=2 RL=565.700873MEG)
*** Microwave Detector/Mixer
.MODEL 1SS174 D (IS=10u N=1.361325 BV=3 IBV=100.000001p RS=6.150886
+ CJO=872.500608f VJ=11.030165 M=300m EG=690m XTI=2 RL=1.136364MEG)
*** Microwave Detector/Mixer
.MODEL 1SS198 D (IS=2.2u N=1.249264 BV=10 IBV=100.000001p RS=59.22838
+ CJO=1.211255p VJ=3.168366 M=300m EG=690m XTI=2 RL=7.367560E+019)
*** Microwave Detector/Mixer
.MODEL 1SS199 D (IS=10u N=1.868327 BV=30 IBV=100.000001p RS=51.111776
+ CJO=1.310173p VJ=3.803607 M=300m EG=690m XTI=2 RL=133.333346K)
*** Microwave Detector/Mixer
.MODEL 1SS228 D (IS=8.5u N=1.315836 BV=3 IBV=100.000001p RS=6.375847
+ CJO=872.500608f VJ=11.030165 M=300m EG=690m XTI=2 RL=384.615435K)
*** Microwave Detector/Mixer
.MODEL 1SS276 D (IS=6.2u N=1.263051 BV=3 IBV=100.000001p RS=6.208785
+ CJO=814.676914f VJ=1.607205 M=300m EG=690m XTI=2 RL=367.647059K)
*** Microwave Detector/Mixer
.MODEL 1SS286 D (IS=120.908665p N=936.92857m BV=25 IBV=100.000001p RS=14.185052
+ CJO=724.724672f VJ=8.152123 M=300.003094m EG=690m XTI=2 RL=9.372865G)
*** Schottky Barrier Diode Vr=30V If=35mA
.MODEL HSR101 D (IS=3.1n N=1.164954 BV=30 IBV=100.000001p RS=10.702304
+ CJO=848.664557f VJ=3.334556 M=300m EG=690m XTI=2 RL=1.000000E+020)
*** Schottky Barrier Diode Vr=10V Io=15mA
.MODEL HSU88 D (IS=1.7n N=1.061321 BV=10 IBV=100.000001p RS=12.335149
+ CJO=615.717587f VJ=700m M=319.51648m EG=690m XTI=2 RL=1.000000E+020)
*** Schottky Barrier Diode Vr=3V Io=30mA
.MODEL HSU276 D (IS=3.496742u N=1.201127 BV=3 IBV=100.000001p RS=4.52703
+ CJO=748.365154f VJ=1.158115 M=300m EG=690m XTI=2 RL=280.009855K)
*** Rectifier
.MODEL 1SS172 D (IS=17.442187n N=1.786887 BV=100 IBV=100.000001p RS=71.285193m
+ TT=28.853901n CJO=7.122223p VJ=100 M=300m EG=1.11 RL=939.897978MEG)
*** Varactor
.MODEL HVE200A D (IS=10f BV=30 IBV=100.000001p RS=1m CJO=56.351167p VJ=3.359652
+ M=1.411719 EG=1.11 RL=1.356116T)
*** Varactor
.MODEL HVE300A D (IS=10f BV=32 IBV=100.000001p RS=1m CJO=83.361983p VJ=3.995511
+ M=1.547238 EG=1.11 RL=329.012309G)
*** Varactor
.MODEL HVE306A D (IS=10f BV=32 IBV=100.000001p RS=1m CJO=61.082065p VJ=3.548516
+ M=1.517583 EG=1.11 RL=400.080011G)
*** Varactor
.MODEL HVE351 D (IS=10f BV=10 IBV=100.000001p RS=1m CJO=27.040032p VJ=2.898715
+ M=1.134869 EG=1.11 RL=8.438819T)
*** Varactor
.MODEL HVE355 D (IS=10f BV=15 IBV=100.000001p RS=1m CJO=13.046476p
+ VJ=704.199467m M=774.325577m EG=1.11 RL=27.45098T)
*** Varactor
.MODEL HVE358 D (IS=10f BV=15 IBV=100.000001p RS=1m CJO=28.778011p VJ=7.366946
+ M=2.457393 EG=1.11 RL=10.10101T)
*** Varactor
.MODEL HVK89 D (IS=10f BV=32 IBV=100.000001p RS=1m CJO=18.739519p VJ=3.030899
+ M=1.017977 EG=1.11 RL=110.1835G)
*** Varactor
.MODEL HVM11 D (IS=10f BV=35 IBV=100.000001p RS=1m CJO=6.376473p VJ=3.330116
+ M=1.080737 EG=1.11 RL=20.20202T)
*** Varactor
.MODEL HVU12 D (IS=10f BV=35 IBV=100.000001p RS=1m CJO=5.86829p VJ=7.467801
+ M=1.757936 EG=1.11 RL=33.112582T)
*** Varactor
.MODEL HVU89 D (IS=10f BV=32 IBV=100.000001p RS=1m CJO=28.867769p
+ VJ=888.747703m M=626.753457m EG=1.11 RL=2.998847T)
*** Varactor
.MODEL HVU200A D (IS=10f BV=32 IBV=100.000001p RS=1m CJO=50.619584p
+ VJ=10.865429 M=2.962442 EG=1.11 RL=1.177163T)
*** Varactor
.MODEL HVU202A D (IS=10f BV=34 IBV=100.000001p RS=1m CJO=25.644551p VJ=4.400061
+ M=1.461334 EG=1.11 RL=16.806723T)
*** Varactor
.MODEL HVU300A D (IS=10f BV=32 IBV=100.000001p RS=1m CJO=80.682362p VJ=4.726179
+ M=1.624392 EG=1.11 RL=285.755113G)
*** Varactor
.MODEL HVU306A D (IS=10f BV=32 IBV=100.000001p RS=1m CJO=60.999052p VJ=3.562841
+ M=1.521639 EG=1.11 RL=425.622463G)
*** Varactor
.MODEL HVU307 D (IS=10f BV=32 IBV=100.000001p RS=1m CJO=71.812488p VJ=2.614151
+ M=1.318456 EG=1.11 RL=2.002002T)
*** Varactor
.MODEL HVU308 D (IS=10f BV=30 IBV=100.000001p RS=1m CJO=23.143301p VJ=6.498006
+ M=1.753072 EG=1.11 RL=14.388489T)
*** Varactor
.MODEL HVU308A D (IS=10f BV=35 IBV=100.000001p RS=1m CJO=42.51685p
+ VJ=818.288211m M=944.585197m EG=1.11 RL=24.390243T)
*** Varactor
.MODEL HVU314 D (IS=10f BV=32 IBV=100.000001p RS=1m CJO=7.991861p VJ=2.25851
+ M=1.224492 EG=1.11 RL=12.562814T)
*** Varactor
.MODEL HVU315 D (IS=10f BV=30 IBV=100.000001p RS=1m CJO=56.030659p VJ=3.096104
+ M=1.384557 EG=1.11 RL=2.73224T)
*** Varactor
.MODEL HVU316 D (IS=10f BV=30 IBV=100.000001p RS=1m CJO=9.3637p VJ=1.995338
+ M=1.135636 EG=1.11 RL=24.752475T)
*** Varactor
.MODEL HVU350 D (IS=10f BV=15 IBV=100.000001p RS=1m CJO=25.270733p VJ=6.043077
+ M=2.82785 EG=1.11 RL=5T)
*** Varactor
.MODEL HVU351 D (IS=10f BV=10 IBV=100.000001p RS=1m CJO=26.971278p VJ=4.01681
+ M=1.522228 EG=1.11 RL=8.77193T)
*** Varactor
.MODEL HVU355 D (IS=10f BV=15 IBV=100.000001p RS=1m CJO=10.250033p VJ=1.684155
+ M=996.185396m EG=1.11 RL=37.974683T)
*** Varactor
.MODEL HVU356 D (IS=10f BV=15 IBV=100.000001p RS=1m CJO=54.595378p VJ=5.117732
+ M=1.881623 EG=1.11 RL=16.326531T)
*** Varactor
.MODEL HVU357 D (IS=10f BV=10 IBV=100.000001p RS=1m CJO=30.420102p VJ=700m
+ M=660.705578m EG=1.11 RL=5.102041T)
*** Varactor
.MODEL HVU358 D (IS=10f BV=15 IBV=100.000001p RS=1m CJO=28.554261p VJ=3.574644
+ M=1.456888 EG=1.11 RL=10.10101T)
*** Varactor
.MODEL HVU362 D (IS=10f BV=15 IBV=100.000001p RS=1m CJO=74.050073p VJ=20.87819
+ M=9.022711 EG=1.11 RL=10.526316T)
*** Varactor
.MODEL HVU363A D (IS=10f BV=32 IBV=100.000001p RS=1m CJO=53.054678p VJ=4.734934
+ M=1.601343 RL=1.042753T)
*** Schottky Barrier Diode Vr=20V Io=3A
.MODEL HRF302A D (IS=6.209739u N=1.061677 BV=20 IBV=100.000001p RS=12.815506m
+ TT=5u CJO=523.025869p VJ=700m M=487.198484m EG=690m XTI=2 RL=631.62383K)
*** Schottky Barrier Diode Vr=20V Io=5A
.MODEL HRF502A D (IS=10u N=974.262348m BV=20 IBV=100.000001p RS=5.231809m TT=5u
+ CJO=848.131751p VJ=700m M=406.412068m EG=690m XTI=2 RL=138.888891K)
*** Schottky Barrier Diode Vr=50V Io=1A
.MODEL HRP22 D (IS=411.490143n N=1.039019 BV=50 IBV=100.000001p RS=105.041701m
+ TT=5u CJO=204.880238p VJ=700m M=513.322585m EG=690m XTI=2 RL=19.402257MEG)
*** Schottky Barrier Diode Vr=90V Io=1A
.MODEL HRP32 D (IS=9u N=1.481087 BV=90 IBV=100.000001p RS=167.547581m TT=5u
+ CJO=193.266836p VJ=700m M=539.666198m EG=690m XTI=2 RL=1.000000E+020)
*** Schottky Barrier Diode Vr=50V Io=1A
.MODEL HRP100 D (IS=449.602774n N=1.051307 BV=50 IBV=100.000001p RS=117.801978m
+ TT=5u CJO=227.220425p VJ=700m M=546.995166m EG=690m XTI=2 RL=7.041466MEG)
*** Schottky Barrier Diode Vr=20V Io=300m
.MODEL HRU0302A D (IS=156.550275n N=757.60774m BV=20 IBV=100.000001p
+ RS=324.006829m TT=5u CJO=47.850584p VJ=735.459295m M=468.589655m EG=690m
+ XTI=2 RL=1.150465MEG)
*** Schottky Rectifier
.MODEL HRW0203A D (IS=33.68418n N=936.128626m BV=30 IBV=100.000001p
+ RS=391.578011m CJO=36.373523p VJ=700m M=580.17057m EG=690m XTI=2
+ RL=19.928676MEG)
*** Schottky Rectifier
.MODEL HRW0302A D (IS=221.101249n N=788.292479m BV=20 IBV=100.000001p
+ RS=321.899289m CJO=47.861541p VJ=769.949853m M=482.973009m EG=690m XTI=2
+ RL=1.139643MEG)
*** Schottky Rectifier
.MODEL HRW0502A D (IS=1.929312n N=500m BV=20 IBV=100.000001p RS=258.004138m
+ CJO=101.529388p VJ=795.365337m M=586.175197m EG=690m XTI=2 RL=471.74967K)
*** Schottky Rectifier
.MODEL HRW0503A D (IS=276.63449n N=1.077729 BV=30 IBV=100.000001p
+ RS=242.034388m CJO=64.654679p VJ=827.374475m M=654.901802m EG=690m XTI=2
+ RL=45.04113MEG)
*** Schottky Rectifier
.MODEL HRW0702A D (IS=2.072323n N=500m BV=20 IBV=100.000001p RS=254.856521m
+ CJO=101.529388p VJ=795.365337m M=586.175197m EG=690m XTI=2 RL=471.753487K)
*** Schottky Rectifier
.MODEL HRW0703A D (IS=2.6u N=1.204838 BV=30 IBV=100.000001p RS=93.871404m
+ CJO=64.681272p VJ=700m M=963.906698m EG=690m XTI=2 RL=1.000000E+020)
