*****
* JFET.LIB Spectrum Software Bill Steele
*****
*** N-Channel JFET Process 52
.MODEL 2N3070 NJF (VTO=-2.342435 BETA=2.953635m LAMBDA=9.999999m IS=10f
+ RS=286.385332 CGD=2.783703p CGS=3.164213p PB=1.937899 KF=4.997636E-019
+ AF=500.524773m)
*** N-Channel JFET Process 52
.MODEL 2N3071 NJF (VTO=-2.342435 BETA=2.953635m LAMBDA=9.999999m IS=10f
+ RS=286.385332 CGD=2.783703p CGS=3.164213p PB=1.937899 KF=4.997636E-019
+ AF=500.524773m)
*** N-Channel JFET Process 52
.MODEL 2N3368 NJF (VTO=-2.342435 BETA=2.953635m LAMBDA=9.999999m IS=10f
+ RS=286.385332 CGD=2.783703p CGS=3.164213p PB=1.937899 KF=4.997636E-019
+ AF=500.524773m)
*** N-Channel JFET Process 52
.MODEL 2N3369 NJF (VTO=-2.342435 BETA=2.953635m LAMBDA=9.999999m IS=10f
+ RS=286.385332 CGD=2.783703p CGS=3.164213p PB=1.937899 KF=4.997636E-019
+ AF=500.524773m)
*** N-Channel JFET Process 52
.MODEL 2N3370 NJF (VTO=-2.342435 BETA=2.953635m LAMBDA=9.999999m IS=10f
+ RS=286.385332 CGD=2.783703p CGS=3.164213p PB=1.937899 KF=4.997636E-019
+ AF=500.524773m)
*** N-Channel JFET Process 52
.MODEL 2N3458 NJF (VTO=-2.342435 BETA=2.953635m LAMBDA=9.999999m IS=10f
+ RS=286.385332 CGD=2.783703p CGS=3.164213p PB=1.937899 KF=4.997636E-019
+ AF=500.524773m)
*** N-Channel JFET Process 52
.MODEL 2N3459 NJF (VTO=-2.342435 BETA=2.953635m LAMBDA=9.999999m IS=10f
+ RS=286.385332 CGD=2.783703p CGS=3.164213p PB=1.937899 KF=4.997636E-019
+ AF=500.524773m)
*** N-Channel JFET Process 52
.MODEL 2N3460 NJF (VTO=-2.342435 BETA=2.953635m LAMBDA=9.999999m IS=10f
+ RS=286.385332 CGD=2.783703p CGS=3.164213p PB=1.937899 KF=4.997636E-019
+ AF=500.524773m)
*** N-Channel JFET Process 52
.MODEL 2N3684 NJF (VTO=-2.342435 BETA=2.953635m LAMBDA=9.999999m IS=10f
+ RS=286.385332 CGD=2.783703p CGS=3.164213p PB=1.937899 KF=4.997636E-019
+ AF=500.524773m)
*** N-Channel JFET Process 52
.MODEL 2N3685 NJF (VTO=-2.342435 BETA=2.953635m LAMBDA=9.999999m IS=10f
+ RS=286.385332 CGD=2.783703p CGS=3.164213p PB=1.937899 KF=4.997636E-019
+ AF=500.524773m)
*** N-Channel JFET Process 52
.MODEL 2N3686 NJF (VTO=-2.342435 BETA=2.953635m LAMBDA=9.999999m IS=10f
+ RS=286.385332 CGD=2.783703p CGS=3.164213p PB=1.937899 KF=4.997636E-019
+ AF=500.524773m)
*** N-Channel JFET Process 52
.MODEL 2N3687 NJF (VTO=-2.342435 BETA=2.953635m LAMBDA=9.999999m IS=10f
+ RS=286.385332 CGD=2.783703p CGS=3.164213p PB=1.937899 KF=4.997636E-019
+ AF=500.524773m)
*** N-Channel JFET Process 50
.MODEL 2N3819 NJF (VTO=-3.061588 BETA=286.155879m LAMBDA=20m IS=10f
+ RS=239.291052 CGD=1.542479p CGS=2.567003p PB=1.49 KF=7.905907f AF=499.953m)
*** N-Channel JFET Process 55
.MODEL 2N3821 NJF (VTO=-2.713168 BETA=28.519268m LAMBDA=10m IS=10f
+ RS=177.127857 CGD=4.191359p CGS=5.347658p PB=967.073084m KF=0.01401f
+ AF=500.127534m)
*** N-Channel JFET Process 55
.MODEL 2N3822 NJF (VTO=-2.713168 BETA=28.519268m LAMBDA=10m IS=10f
+ RS=177.127857 CGD=4.191359p CGS=5.347658p PB=967.073084m KF=0.01401f
+ AF=500.127534m)
*** N-Channel JFET Process 50
.MODEL 2N3823 NJF (VTO=-3.061588 BETA=286.155879m LAMBDA=20m IS=10f
+ RS=239.291052 CGD=1.542479p CGS=2.567003p PB=1.49 KF=7.905907f AF=499.953m)
*** N-Channel JFET Process 55
.MODEL 2N3824 NJF (VTO=-2.713168 BETA=28.519268m LAMBDA=10m IS=10f
+ RS=177.127857 CGD=4.191359p CGS=5.347658p PB=967.073084m KF=0.01401f
+ AF=500.127534m)
*** N-Channel JFET Process 98
.MODEL 2N3921 NJF (VTO=-1.661476 BETA=1.853321m LAMBDA=1m IS=10f RS=56.779918m
+ CGD=17.157457p CGS=28.042986p PB=60.020072m KF=1.000000E-018 AF=500m)
*** N-Channel JFET Process 98
.MODEL 2N3922 NJF (VTO=-1.661476 BETA=1.853321m LAMBDA=1m IS=10f RS=56.779918m
+ CGD=18.154008p CGS=29.660402p PB=53.489959m KF=1.000000E-018 AF=500m)
*** N-Channel Monolithic Dual JFET Pro.83
.MODEL 2N3954 NJF (VTO=-2.254224 BETA=1.619123m LAMBDA=7m IS=10f RS=149.945459
+ CGD=1.798407p CGS=3.810991p PB=167.5348m KF=2.813542E-019 AF=500.784765m)
*** N-Channel Monolithic Dual JFET Pro.83
.MODEL 2N3954A NJF (VTO=-2.254224 BETA=1.619123m LAMBDA=7m IS=10f RS=149.945459
+ CGD=1.798407p CGS=3.810991p PB=167.5348m KF=2.813542E-019 AF=500.784765m)
*** N-Channel Monolithic Dual JFET Pro.83
.MODEL 2N3955 NJF (VTO=-2.254224 BETA=1.619123m LAMBDA=7m IS=10f RS=149.945459
+ CGD=1.798407p CGS=3.810991p PB=167.5348m KF=2.813542E-019 AF=500.784765m)
*** N-Channel Monolithic Dual JFET Pro.83
.MODEL 2N3955A NJF (VTO=-2.254224 BETA=1.619123m LAMBDA=7m IS=10f RS=149.945459
+ CGD=1.798407p CGS=3.810991p PB=167.5348m KF=2.813542E-019 AF=500.784765m)
*** N-Channel Monolithic Dual JFET Pro.83
.MODEL 2N3956 NJF (VTO=-2.254224 BETA=1.619123m LAMBDA=7m IS=10f RS=149.945459
+ CGD=1.798407p CGS=3.810991p PB=167.5348m KF=2.813542E-019 AF=500.784765m)
*** N-Channel Monolithic Dual JFET Pro.83
.MODEL 2N3957 NJF (VTO=-2.254224 BETA=1.619123m LAMBDA=7m IS=10f RS=149.945459
+ CGD=1.798407p CGS=3.810991p PB=167.5348m KF=2.813542E-019 AF=500.784765m)
*** N-Channel Monolithic Dual JFET Pro.83
.MODEL 2N3958 NJF (VTO=-2.254224 BETA=1.619123m LAMBDA=7m IS=10f RS=149.945459
+ CGD=1.798407p CGS=3.810991p PB=167.5348m KF=2.813542E-019 AF=500.784765m)
*** N-Channel JFET Process 50
.MODEL 2N3966 NJF (VTO=-3.061588 BETA=286.155879m LAMBDA=20m IS=10f
+ RS=239.291052 CGD=1.542479p CGS=2.567003p PB=1.49 KF=7.905907f AF=499.953m)
*** N-Channel JFET Process 55
.MODEL 2N3967 NJF (VTO=-2.713168 BETA=28.519268m LAMBDA=10m IS=10f
+ RS=177.127857 CGD=4.191359p CGS=5.347658p PB=967.073084m KF=0.01401f
+ AF=500.127534m)
*** N-Channel JFET Process 55
.MODEL 2N3967A NJF (VTO=-2.713168 BETA=28.519268m LAMBDA=10m IS=10f
+ RS=177.127857 CGD=4.191362p CGS=5.347658p PB=967.071134m KF=0.01401f
+ AF=500.127534m)
*** N-Channel JFET Process 55
.MODEL 2N3968 NJF (VTO=-2.713168 BETA=28.519268m LAMBDA=10m IS=10f
+ RS=177.127857 CGD=4.191359p CGS=5.347658p PB=967.073084m KF=0.01401f
+ AF=500.127534m)
*** N-Channel JFET Process 55
.MODEL 2N3968A NJF (VTO=-2.713168 BETA=28.519268m LAMBDA=10m IS=10f
+ RS=177.127857 CGD=4.191359p CGS=5.347658p PB=967.073084m KF=0.01401f
+ AF=500.127534m)
*** N-Channel JFET Process 55
.MODEL 2N3969 NJF (VTO=-2.713168 BETA=28.519268m LAMBDA=10m IS=10f
+ RS=177.127857 CGD=4.191359p CGS=5.347658p PB=967.073084m KF=0.01401f
+ AF=500.127534m)
*** N-Channel JFET Process 55
.MODEL 2N3969A NJF (VTO=-2.713168 BETA=28.519268m LAMBDA=10m IS=10f
+ RS=177.127857 CGD=4.191359p CGS=5.347658p PB=967.073084m KF=0.01401f
+ AF=500.127534m)
*** N-Channel JFET Process 51
.MODEL 2N3970 NJF (VTO=-2.81041 BETA=4.644731m LAMBDA=10m IS=10f RS=2.483091
+ CGD=5.321821p CGS=9.310367p PB=2.449314 KF=1.462538E-018 AF=499.910353m)
*** N-Channel JFET Process 51
.MODEL 2N3971 NJF (VTO=-2.81041 BETA=4.644731m LAMBDA=10m IS=10f RS=2.483091
+ CGD=5.321821p CGS=9.310367p PB=2.449314 KF=1.462538E-018 AF=499.910353m)
*** N-Channel JFET Process 51
.MODEL 2N3972 NJF (VTO=-2.81041 BETA=4.644731m LAMBDA=10m IS=10f RS=2.483091
+ CGD=5.321821p CGS=9.310367p PB=2.449314 KF=1.462538E-018 AF=499.910353m)
*** N-Channel JFET Process 51
.MODEL 2N4091 NJF (VTO=-2.81041 BETA=4.644731m LAMBDA=10m IS=10f RS=2.483091
+ CGD=5.321821p CGS=9.310367p PB=2.449314 KF=1.462538E-018 AF=499.910353m)
*** N-Channel JFET Process 51
.MODEL 2N4092 NJF (VTO=-2.81041 BETA=4.644731m LAMBDA=10m IS=10f RS=2.483091
+ CGD=5.321821p CGS=9.310367p PB=2.449314 KF=1.462538E-018 AF=499.910353m)
*** N-Channel JFET Process 51
.MODEL 2N4093 NJF (VTO=-2.81041 BETA=4.644731m LAMBDA=10m IS=10f RS=2.483091
+ CGD=5.321821p CGS=9.310367p PB=2.449314 KF=1.462538E-018 AF=499.910353m)
*** N-Channel JFET Process 53
.MODEL 2N4117 NJF (VTO=-1.584498 BETA=70.69866u LAMBDA=10m IS=10f RS=1000
+ CGD=1.422143p CGS=1.150428p PB=9.999993 KF=3.538482E-019 AF=499.889874m)
*** N-Channel JFET Process 53
.MODEL 2N4117A NJF (VTO=-1.584498 BETA=70.69866u LAMBDA=10m IS=10f RS=1000
+ CGD=1.422143p CGS=1.150428p PB=9.999993 KF=3.538482E-019 AF=499.889874m)
*** N-Channel JFET Process 53
.MODEL 2N4118 NJF (VTO=-1.584498 BETA=70.69866u LAMBDA=10m IS=10f RS=1000
+ CGD=1.422143p CGS=1.150428p PB=9.999993 KF=3.538482E-019 AF=499.889874m)
*** N-Channel JFET Process 53
.MODEL 2N4118A NJF (VTO=-1.584498 BETA=70.69866u LAMBDA=10m IS=10f RS=1000
+ CGD=1.422143p CGS=1.150428p PB=9.999993 KF=3.538482E-019 AF=499.889874m)
*** N-Channel JFET Process 53
.MODEL 2N4119 NJF (VTO=-1.584498 BETA=70.69866u LAMBDA=10m IS=10f RS=1000
+ CGD=1.422143p CGS=1.150428p PB=9.999993 KF=3.538482E-019 AF=499.889874m)
*** N-Channel JFET Process 53
.MODEL 2N4119A NJF (VTO=-1.584498 BETA=70.69866u LAMBDA=10m IS=10f RS=1000
+ CGD=1.422143p CGS=1.150428p PB=9.999993 KF=3.538482E-019 AF=499.889874m)
*** N-Channel JFET Process 55
.MODEL 2N4220 NJF (VTO=-2.713168 BETA=28.519268m LAMBDA=10m IS=10f
+ RS=177.127857 CGD=4.191359p CGS=5.347658p PB=967.073084m KF=0.01401f
+ AF=500.127534m)
*** N-Channel JFET Process 55
.MODEL 2N4220A NJF (VTO=-2.713168 BETA=28.519268m LAMBDA=10m IS=10f
+ RS=177.127857 CGD=4.191359p CGS=5.347658p PB=967.073084m KF=0.01401f
+ AF=500.127534m)
*** N-Channel JFET Process 55
.MODEL 2N4221 NJF (VTO=-2.713168 BETA=28.519268m LAMBDA=10m IS=10f
+ RS=177.127857 CGD=4.191359p CGS=5.347658p PB=967.073084m KF=0.01401f
+ AF=500.127534m)
*** N-Channel JFET Process 55
.MODEL 2N4221A NJF (VTO=-2.713168 BETA=28.519268m LAMBDA=10m IS=10f
+ RS=177.127857 CGD=4.191359p CGS=5.347658p PB=967.073084m KF=0.01401f
+ AF=500.127534m)
*** N-Channel JFET Process 55
.MODEL 2N4222 NJF (VTO=-2.713168 BETA=28.519268m LAMBDA=10m IS=10f
+ RS=177.127857 CGD=4.191359p CGS=5.347658p PB=967.073084m KF=0.01401f
+ AF=500.127534m)
*** N-Channel JFET Process 55
.MODEL 2N4222A NJF (VTO=-2.713168 BETA=28.519268m LAMBDA=10m IS=10f
+ RS=177.127857 CGD=4.191359p CGS=5.347658p PB=967.073084m KF=0.01401f
+ AF=500.127534m)
*** N-Channel JFET Process 50
.MODEL 2N4223 NJF (VTO=-3.061588 BETA=286.155879m LAMBDA=20m IS=10f
+ RS=239.291052 CGD=1.542479p CGS=2.567003p PB=1.49 KF=7.905907f AF=499.953m)
*** N-Channel JFET Process 50
.MODEL 2N4224 NJF (VTO=-3.061588 BETA=286.155879m LAMBDA=20m IS=10f
+ RS=239.291052 CGD=1.542479p CGS=2.567003p PB=1.49 KF=7.905907f AF=499.953m)
*** N-Channel JFET Process 52
.MODEL 2N4338 NJF (VTO=-2.342435 BETA=2.953635m LAMBDA=9.999999m IS=10f
+ RS=286.385332 CGD=2.783703p CGS=3.164213p PB=1.937899 KF=4.997636E-019
+ AF=500.524773m)
*** N-Channel JFET Process 52
.MODEL 2N4339 NJF (VTO=-2.342435 BETA=2.953635m LAMBDA=9.999999m IS=10f
+ RS=286.385332 CGD=2.783703p CGS=3.164213p PB=1.937899 KF=4.997636E-019
+ AF=500.524773m)
*** N-Channel JFET Process 52
.MODEL 2N4340 NJF (VTO=-2.342435 BETA=2.953635m LAMBDA=9.999999m IS=10f
+ RS=286.385332 CGD=2.783703p CGS=3.164213p PB=1.937899 KF=4.997636E-019
+ AF=500.524773m)
*** N-Channel JFET Process 52
.MODEL 2N4341 NJF (VTO=-2.342435 BETA=2.953635m LAMBDA=9.999999m IS=10f
+ RS=286.385332 CGD=2.783703p CGS=3.164213p PB=1.937899 KF=4.997636E-019
+ AF=500.524773m)
*** N-Channel JFET Process 51
.MODEL 2N4391 NJF (VTO=-2.81041 BETA=4.644731m LAMBDA=10m IS=10f RS=2.483091
+ CGD=5.321821p CGS=9.310367p PB=2.449314 KF=1.462538E-018 AF=499.910353m)
*** N-Channel JFET Process 51
.MODEL 2N4392 NJF (VTO=-2.81041 BETA=4.644731m LAMBDA=10m IS=10f RS=2.483091
+ CGD=5.321821p CGS=9.310367p PB=2.449314 KF=1.462538E-018 AF=499.910353m)
*** N-Channel JFET Process 51
.MODEL 2N4393 NJF (VTO=-2.81041 BETA=4.644731m LAMBDA=10m IS=10f RS=2.483091
+ CGD=5.321821p CGS=9.310367p PB=2.449314 KF=1.462538E-018 AF=499.910353m)
*** N-Channel JFET Process 50
.MODEL 2N4416 NJF (VTO=-3.061588 BETA=286.155879m LAMBDA=20m IS=10f
+ RS=239.291052 CGD=1.542479p CGS=2.567003p PB=1.49 KF=7.905907f AF=499.953m)
*** N-Channel JFET Process 50
.MODEL 2N4416A NJF (VTO=-3.061588 BETA=286.155879m LAMBDA=20m IS=10f
+ RS=239.291052 CGD=1.542479p CGS=2.567003p PB=1.49 KF=7.905907f AF=499.953m)
*** N-Channel JFET Process 51
.MODEL 2N4856 NJF (VTO=-2.81041 BETA=4.644731m LAMBDA=10m IS=10f RS=2.483091
+ CGD=5.321821p CGS=9.310367p PB=2.449314 KF=1.462538E-018 AF=499.910353m)
*** N-Channel JFET Process 51
.MODEL 2N4856A NJF (VTO=-2.81041 BETA=4.644731m LAMBDA=10m IS=10f RS=2.483091
+ CGD=5.321821p CGS=9.310367p PB=2.449314 KF=1.462538E-018 AF=499.910353m)
*** N-Channel JFET Process 51
.MODEL 2N4857 NJF (VTO=-2.81041 BETA=4.644731m LAMBDA=10m IS=10f RS=2.483091
+ CGD=5.321821p CGS=9.310367p PB=2.449314 KF=1.462538E-018 AF=499.910353m)
*** N-Channel JFET Process 51
.MODEL 2N4857A NJF (VTO=-2.81041 BETA=4.644731m LAMBDA=10m IS=10f RS=2.483091
+ CGD=5.32182p CGS=9.310367p PB=2.449315 KF=1.462538E-018 AF=499.910353m)
*** N-Channel JFET Process 51
.MODEL 2N4858 NJF (VTO=-2.81041 BETA=4.644731m LAMBDA=10m IS=10f RS=2.483091
+ CGD=5.321821p CGS=9.310367p PB=2.449314 KF=1.462538E-018 AF=499.910353m)
*** N-Channel JFET Process 51
.MODEL 2N4858A NJF (VTO=-2.81041 BETA=4.644731m LAMBDA=10m IS=10f RS=2.483091
+ CGD=5.321821p CGS=9.310367p PB=2.449314 KF=1.462538E-018 AF=499.910353m)
*** N-Channel JFET Process 51
.MODEL 2N4859 NJF (VTO=-2.81041 BETA=4.644731m LAMBDA=10m IS=10f RS=2.483091
+ CGD=5.321821p CGS=9.310367p PB=2.449314 KF=1.462538E-018 AF=499.910353m)
*** N-Channel JFET Process 51
.MODEL 2N4859A NJF (VTO=-2.81041 BETA=4.644731m LAMBDA=10m IS=10f RS=2.483091
+ CGD=5.321821p CGS=9.310367p PB=2.449314 KF=1.462538E-018 AF=499.910353m)
*** N-Channel JFET Process 51
.MODEL 2N4860 NJF (VTO=-2.81041 BETA=4.644731m LAMBDA=10m IS=10f RS=2.483091
+ CGD=5.321821p CGS=9.310367p PB=2.449314 KF=1.462538E-018 AF=499.910353m)
*** N-Channel JFET Process 51
.MODEL 2N4860A NJF (VTO=-2.81041 BETA=4.644731m LAMBDA=10m IS=10f RS=2.483091
+ CGD=5.321821p CGS=9.310367p PB=2.449314 KF=1.462538E-018 AF=499.910353m)
*** N-Channel JFET Process 51
.MODEL 2N4861 NJF (VTO=-2.81041 BETA=4.644731m LAMBDA=10m IS=10f RS=2.483091
+ CGD=5.321821p CGS=9.310367p PB=2.449314 KF=1.462538E-018 AF=499.910353m)
*** N-Channel JFET Process 51
.MODEL 2N4861A NJF (VTO=-2.81041 BETA=4.644731m LAMBDA=10m IS=10f RS=2.483091
+ CGD=5.321821p CGS=9.310367p PB=2.449314 KF=1.462538E-018 AF=499.910353m)
*** N-Channel Monolithic Dual JFET Pro.83
.MODEL 2N5045 NJF (VTO=-2.254224 BETA=1.619123m LAMBDA=7m IS=10f RS=149.945459
+ CGD=1.798407p CGS=3.810991p PB=167.5348m KF=2.813542E-019 AF=500.784765m)
*** N-Channel Monolithic Dual JFET Pro.83
.MODEL 2N5046 NJF (VTO=-2.254224 BETA=1.619123m LAMBDA=7m IS=10f RS=149.945459
+ CGD=1.798407p CGS=3.810991p PB=167.5348m KF=2.813542E-019 AF=500.784765m)
*** N-Channel Monolithic Dual JFET Pro.83
.MODEL 2N5047 NJF (VTO=-2.254224 BETA=1.619123m LAMBDA=7m IS=10f RS=149.945459
+ CGD=1.798407p CGS=3.810991p PB=167.5348m KF=2.813542E-019 AF=500.784765m)
*** N-Channel JFET Process 50
.MODEL 2N5078 NJF (VTO=-3.061588 BETA=286.155879m LAMBDA=20m IS=10f
+ RS=239.291052 CGD=1.542479p CGS=2.567003p PB=1.49 KF=7.905907f AF=499.953m)
*** N-Channel JFET Process 50
.MODEL 2N5103 NJF (VTO=-1.760992 BETA=6.596618m LAMBDA=20m IS=10f RS=173.517062
+ CGD=1.542479p CGS=2.567003p PB=1.49 KF=8.819013E-018 AF=499.150595m)
*** N-Channel JFET Process 50
.MODEL 2N5104 NJF (VTO=-1.760992 BETA=6.596618m LAMBDA=20m IS=10f RS=173.517062
+ CGD=1.542479p CGS=2.567003p PB=1.49 KF=8.819013E-018 AF=499.150595m)
*** N-Channel JFET Process 50
.MODEL 2N5105 NJF (VTO=-1.760992 BETA=6.596618m LAMBDA=20m IS=10f RS=173.517062
+ CGD=1.542479p CGS=2.567003p PB=1.49 KF=8.819013E-018 AF=499.150595m)
*** N-Channel Monolithic Dual JFET Pro.83
.MODEL 2N5196 NJF (VTO=-2.254224 BETA=1.619123m LAMBDA=7m IS=10f RS=149.945459
+ CGD=1.798407p CGS=3.810991p PB=167.5348m KF=2.813542E-019 AF=500.784765m)
*** N-Channel Monolithic Dual JFET Pro.83
.MODEL 2N5197 NJF (VTO=-2.254224 BETA=1.619123m LAMBDA=7m IS=10f RS=149.945459
+ CGD=1.798407p CGS=3.810991p PB=167.5348m KF=2.813542E-019 AF=500.784765m)
*** N-Channel Monolithic Dual JFET Pro.83
.MODEL 2N5198 NJF (VTO=-2.254224 BETA=1.619123m LAMBDA=7m IS=10f RS=149.945459
+ CGD=1.798407p CGS=3.810991p PB=167.5348m KF=2.813542E-019 AF=500.784765m)
*** N-Channel Monolithic Dual JFET Pro.83
.MODEL 2N5199 NJF (VTO=-2.254224 BETA=1.619123m LAMBDA=7m IS=10f RS=149.945459
+ CGD=1.798407p CGS=3.810991p PB=167.5348m KF=2.813542E-019 AF=500.784765m)
*** N-Channel JFET Process 90
.MODEL 2N5245 NJF (VTO=-3.346964 BETA=937.151365m LAMBDA=22.500001m IS=10f
+ RS=128.318193 CGD=2.888338p CGS=3.313258p PB=1.841567 KF=75.254888f
+ AF=100.005005m)
*** N-Channel JFET Process 90
.MODEL 2N5246 NJF (VTO=-3.346964 BETA=937.151364m LAMBDA=22.500001m IS=10f
+ RS=128.318193 CGD=2.888338p CGS=3.313258p PB=1.841567 KF=75.254889f
+ AF=100.005011m)
*** N-Channel JFET Process 90
.MODEL 2N5247 NJF (VTO=-3.346964 BETA=937.151365m LAMBDA=22.500001m IS=10f
+ RS=128.318193 CGD=2.888338p CGS=3.313258p PB=1.841567 KF=75.254888f
+ AF=100.005006m)
*** N-Channel JFET Process 50
.MODEL 2N5248 NJF (VTO=-3.061588 BETA=286.155879m LAMBDA=20m IS=10f
+ RS=239.291052 CGD=1.542479p CGS=2.567003p PB=1.49 KF=7.905907f AF=499.953m)
*** N-Channel JFET Process 55
.MODEL 2N5358 NJF (VTO=-2.713168 BETA=28.519268m LAMBDA=10m IS=10f
+ RS=177.127857 CGD=4.191359p CGS=5.347658p PB=967.073084m KF=0.01401f
+ AF=500.127534m)
*** N-Channel JFET Process 55
.MODEL 2N5359 NJF (VTO=-2.713168 BETA=28.519268m LAMBDA=10m IS=10f
+ RS=177.127857 CGD=4.191359p CGS=5.347658p PB=967.073084m KF=0.01401f
+ AF=500.127534m)
*** N-Channel JFET Process 55
.MODEL 2N5360 NJF (VTO=-2.713168 BETA=28.519268m LAMBDA=10m IS=10f
+ RS=177.127857 CGD=4.191359p CGS=5.347658p PB=967.073084m KF=0.01401f
+ AF=500.127534m)
*** N-Channel JFET Process 55
.MODEL 2N5361 NJF (VTO=-2.713168 BETA=28.519268m LAMBDA=10m IS=10f
+ RS=177.127857 CGD=4.191359p CGS=5.347658p PB=967.073084m KF=0.01401f
+ AF=500.127534m)
*** N-Channel JFET Process 55
.MODEL 2N5362 NJF (VTO=-2.713168 BETA=28.519268m LAMBDA=10m IS=10f
+ RS=177.127857 CGD=4.191359p CGS=5.347658p PB=967.073084m KF=0.01401f
+ AF=500.127534m)
*** N-Channel JFET Process 55
.MODEL 2N5363 NJF (VTO=-2.713168 BETA=28.519268m LAMBDA=10m IS=10f
+ RS=177.127857 CGD=4.191359p CGS=5.347658p PB=967.073084m KF=0.01401f
+ AF=500.127534m)
*** N-Channel JFET Process 55
.MODEL 2N5364 NJF (VTO=-2.713168 BETA=28.519268m LAMBDA=10m IS=10f
+ RS=177.127857 CGD=4.191359p CGS=5.347658p PB=967.073084m KF=0.01401f
+ AF=500.127534m)
*** N-Channel JFET Process 90
.MODEL 2N5397 NJF (VTO=-3.346964 BETA=937.151364m LAMBDA=22.500001m IS=10f
+ RS=128.318193 CGD=2.887979p CGS=3.311913p PB=1.843137 KF=475.050952f
+ AF=500.107745m)
*** N-Channel JFET Process 90
.MODEL 2N5398 NJF (VTO=-3.346964 BETA=937.151365m LAMBDA=22.500001m IS=10f
+ RS=128.318193 CGD=2.888338p CGS=3.313258p PB=1.841567 KF=75.254888f
+ AF=100.005006m)
*** N-Channel Monolithic Dual JFET Pro.83
.MODEL 2N5452 NJF (VTO=-2.254224 BETA=1.619123m LAMBDA=7m IS=10f RS=149.945459
+ CGD=1.798407p CGS=3.810991p PB=167.5348m KF=2.813542E-019 AF=500.784765m)
*** N-Channel Monolithic Dual JFET Pro.83
.MODEL 2N5453 NJF (VTO=-2.254224 BETA=1.619123m LAMBDA=7m IS=10f RS=149.945459
+ CGD=1.798407p CGS=3.810991p PB=167.5348m KF=2.813542E-019 AF=500.784765m)
*** N-Channel Monolithic Dual JFET Pro.83
.MODEL 2N5454 NJF (VTO=-2.254224 BETA=1.619123m LAMBDA=7m IS=10f RS=149.945459
+ CGD=1.798407p CGS=3.810991p PB=167.5348m KF=2.813542E-019 AF=500.784765m)
*** N-Channel JFET Process 55
.MODEL 2N5457 NJF (VTO=-2.713168 BETA=28.519268m LAMBDA=10m IS=10f
+ RS=177.127857 CGD=4.191359p CGS=5.347658p PB=967.073084m KF=0.01401f
+ AF=500.127534m)
*** N-Channel JFET Process 55
.MODEL 2N5458 NJF (VTO=-2.713168 BETA=28.519268m LAMBDA=10m IS=10f
+ RS=177.127857 CGD=4.191359p CGS=5.347658p PB=967.073084m KF=0.01401f
+ AF=500.127534m)
*** N-Channel JFET Process 55
.MODEL 2N5459 NJF (VTO=-2.713168 BETA=28.519268m LAMBDA=10m IS=10f
+ RS=177.127857 CGD=4.191359p CGS=5.347658p PB=967.073084m KF=0.01401f
+ AF=500.127534m)
*** N-Channel JFET Process 50
.MODEL 2N5484 NJF (VTO=-1.760992 BETA=6.596618m LAMBDA=20m IS=10f RS=173.517062
+ CGD=1.542479p CGS=2.567003p PB=1.49 KF=8.819013E-018 AF=499.150595m)
*** N-Channel JFET Process 50
.MODEL 2N5485 NJF (VTO=-1.760992 BETA=6.596618m LAMBDA=20m IS=10f RS=173.517062
+ CGD=1.542479p CGS=2.567003p PB=1.49 KF=8.819013E-018 AF=499.150595m)
*** N-Channel JFET Process 50
.MODEL 2N5486 NJF (VTO=-3.061588 BETA=286.155879m LAMBDA=20m IS=10f
+ RS=239.291052 CGD=1.542479p CGS=2.567003p PB=1.49 KF=7.905907f AF=499.953m)
*** N-Channel Monolithic Dual JFET Pro.95
.MODEL 2N5515 NJF (VTO=-1.405677 BETA=539.204139u LAMBDA=599.999993u IS=10f
+ CGD=8.988282p CGS=26.714039p PB=250.738777m KF=1.000000E-018 AF=500m)
*** N-Channel Monolithic Dual JFET Pro.95
.MODEL 2N5516 NJF (VTO=-1.405677 BETA=539.204139u LAMBDA=599.999993u IS=10f
+ CGD=8.988282p CGS=26.714039p PB=250.738777m KF=1.000000E-018 AF=500m)
*** N-Channel Monolithic Dual JFET Pro.95
.MODEL 2N5517 NJF (VTO=-1.405677 BETA=539.204139u LAMBDA=599.999993u IS=10f
+ CGD=8.988282p CGS=26.714039p PB=250.738777m KF=1.000000E-018 AF=500m)
*** N-Channel Monolithic Dual JFET Pro.95
.MODEL 2N5518 NJF (VTO=-1.405677 BETA=539.204139u LAMBDA=599.999993u IS=10f
+ CGD=8.988282p CGS=26.714039p PB=250.738777m KF=1.000000E-018 AF=500m)
*** N-Channel Monolithic Dual JFET Pro.95
.MODEL 2N5519 NJF (VTO=-1.405677 BETA=539.204139u LAMBDA=599.999993u IS=10f
+ CGD=8.988282p CGS=26.714039p PB=250.738777m KF=1.000000E-018 AF=500m)
*** N-Channel Monolithic Dual JFET Pro.95
.MODEL 2N5520 NJF (VTO=-1.405677 BETA=539.204139u LAMBDA=599.999993u IS=10f
+ CGD=8.988282p CGS=26.714039p PB=250.738777m KF=1.000000E-018 AF=500m)
*** N-Channel Monolithic Dual JFET Pro.95
.MODEL 2N5521 NJF (VTO=-1.405677 BETA=539.204139u LAMBDA=599.999993u IS=10f
+ CGD=8.988282p CGS=26.714039p PB=250.738777m KF=1.000000E-018 AF=500m)
*** N-Channel Monolithic Dual JFET Pro.95
.MODEL 2N5522 NJF (VTO=-1.405677 BETA=539.204139u LAMBDA=599.999993u IS=10f
+ CGD=8.988282p CGS=26.714039p PB=250.738777m KF=1.000000E-018 AF=500m)
*** N-Channel Monolithic Dual JFET Pro.95
.MODEL 2N5523 NJF (VTO=-1.405677 BETA=539.204139u LAMBDA=599.999993u IS=10f
+ CGD=8.988282p CGS=26.714039p PB=250.738777m KF=1.000000E-018 AF=500m)
*** N-Channel Monolithic Dual JFET Pro.95
.MODEL 2N5524 NJF (VTO=-1.405677 BETA=539.204139u LAMBDA=599.999993u IS=10f
+ CGD=8.988282p CGS=26.714039p PB=250.738777m KF=1.000000E-018 AF=500m)
*** N-Channel Monolithic Dual JFET Pro.83
.MODEL 2N5545 NJF (VTO=-2.254224 BETA=1.619123m LAMBDA=7m IS=10f RS=149.945459
+ CGD=1.798407p CGS=3.810991p PB=167.5348m KF=2.813542E-019 AF=500.784765m)
*** N-Channel Monolithic Dual JFET Pro.83
.MODEL 2N5546 NJF (VTO=-2.254224 BETA=1.619123m LAMBDA=7m IS=10f RS=149.945459
+ CGD=1.798407p CGS=3.810991p PB=167.5348m KF=2.813542E-019 AF=500.784765m)
*** N-Channel Monolithic Dual JFET Pro.83
.MODEL 2N5547 NJF (VTO=-2.254224 BETA=1.619123m LAMBDA=7m IS=10f RS=149.945459
+ CGD=1.798407p CGS=3.810991p PB=167.5348m KF=2.813542E-019 AF=500.784765m)
*** N-Channel JFET Process 50
.MODEL 2N5555 NJF (VTO=-3.061588 BETA=286.155879m LAMBDA=20m IS=10f
+ RS=239.291052 CGD=1.542479p CGS=2.567003p PB=1.49 KF=7.905907f AF=499.953m)
*** N-Channel JFET Process 50
.MODEL 2N5556 NJF (VTO=-1.760992 BETA=6.596618m LAMBDA=20m IS=10f RS=173.517062
+ CGD=1.542479p CGS=2.567003p PB=1.49 KF=8.819013E-018 AF=499.150595m)
*** N-Channel JFET Process 50
.MODEL 2N5557 NJF (VTO=-3.061588 BETA=286.155879m LAMBDA=20m IS=10f
+ RS=239.291052 CGD=1.542479p CGS=2.567003p PB=1.49 KF=7.905907f AF=499.953m)
*** N-Channel JFET Process 50
.MODEL 2N5558 NJF (VTO=-3.061588 BETA=286.155879m LAMBDA=20m IS=10f
+ RS=239.291052 CGD=1.542479p CGS=2.567003p PB=1.49 KF=7.905907f AF=499.953m)
*** N-Channel JFET Process 98
.MODEL 2N5561 NJF (VTO=-1.661476 BETA=1.853321m LAMBDA=1m IS=10f RS=56.779918m
+ CGD=18.154008p CGS=29.660402p PB=53.489959m KF=1.000000E-018 AF=500m)
*** N-Channel JFET Process 98
.MODEL 2N5562 NJF (VTO=-1.661476 BETA=1.853321m LAMBDA=1m IS=10f RS=56.779918m
+ CGD=18.154008p CGS=29.660402p PB=53.489959m KF=1.000000E-018 AF=500m)
*** N-Channel JFET Process 98
.MODEL 2N5563 NJF (VTO=-1.661476 BETA=1.853321m LAMBDA=1m IS=10f RS=56.779918m
+ CGD=18.154008p CGS=29.660402p PB=53.489959m KF=1.000000E-018 AF=500m)
*** N-Channel Monolithic Dual JFET Pro.96
.MODEL 2N5564 NJF (VTO=-1.145215 BETA=7.302072m LAMBDA=19.999999m IS=10f
+ RS=2.995375m CGD=7.998927p CGS=12.890039p PB=666.905059m KF=6.961525E-019
+ AF=500.053307m)
*** N-Channel Monolithic Dual JFET Pro.96
.MODEL 2N5565 NJF (VTO=-1.145215 BETA=7.302072m LAMBDA=19.999999m IS=10f
+ RS=2.995375m CGD=7.998927p CGS=12.890039p PB=666.905059m KF=6.961525E-019
+ AF=500.053307m)
*** N-Channel Monolithic Dual JFET Pro.96
.MODEL 2N5566 NJF (VTO=-1.145215 BETA=7.302072m LAMBDA=19.999999m IS=10f
+ RS=2.995375m CGD=7.998927p CGS=12.890039p PB=666.905059m KF=6.961525E-019
+ AF=500.053307m)
*** N-Channel JFET Process 51
.MODEL 2N5638 NJF (VTO=-2.81041 BETA=4.644731m LAMBDA=10m IS=10f RS=2.483091
+ CGD=5.321821p CGS=9.310367p PB=2.449314 KF=1.462538E-018 AF=499.910353m)
*** N-Channel JFET Process 51
.MODEL 2N5639 NJF (VTO=-2.81041 BETA=4.644731m LAMBDA=10m IS=10f RS=2.483091
+ CGD=5.321821p CGS=9.310367p PB=2.449314 KF=1.462538E-018 AF=499.910353m)
*** N-Channel JFET Process 51
.MODEL 2N5640 NJF (VTO=-2.81041 BETA=4.644731m LAMBDA=10m IS=10f RS=2.483091
+ CGD=5.321821p CGS=9.310367p PB=2.449314 KF=1.462538E-018 AF=499.910353m)
*** N-Channel JFET Process 51
.MODEL 2N5653 NJF (VTO=-2.81041 BETA=4.644731m LAMBDA=10m IS=10f RS=2.483091
+ CGD=5.321821p CGS=9.310367p PB=2.449314 KF=1.462538E-018 AF=499.910353m)
*** N-Channel JFET Process 51
.MODEL 2N5654 NJF (VTO=-2.81041 BETA=4.644731m LAMBDA=10m IS=10f RS=2.483091
+ CGD=5.321821p CGS=9.310367p PB=2.449314 KF=1.462538E-018 AF=499.910353m)
*** N-Channel JFET Process 50
.MODEL 2N5668 NJF (VTO=-3.061588 BETA=286.155879m LAMBDA=20m IS=10f
+ RS=239.291052 CGD=1.542479p CGS=2.567003p PB=1.49 KF=7.905907f AF=499.953m)
*** N-Channel JFET Process 50
.MODEL 2N5669 NJF (VTO=-3.061588 BETA=286.155879m LAMBDA=20m IS=10f
+ RS=239.291052 CGD=1.542479p CGS=2.567003p PB=1.49 KF=7.905907f AF=499.953m)
*** N-Channel JFET Process 50
.MODEL 2N5670 NJF (VTO=-3.061588 BETA=286.155879m LAMBDA=20m IS=10f
+ RS=239.291052 CGD=1.542479p CGS=2.567003p PB=1.49 KF=7.905907f AF=499.953m)
*** N-Channel Monolithic Dual JFET
.MODEL 2N5911 NJF (VTO=-3.907051 BETA=26.214685m LAMBDA=19.999999m IS=10f
+ RS=107.778399 CGD=2.912659p CGS=4.104626p PB=1.644996 KF=0.163471f
+ AF=499.524566m)
*** N-Channel Monolithic Dual JFET
.MODEL 2N5912 NJF (VTO=-3.907051 BETA=26.214685m LAMBDA=19.999999m IS=10f
+ RS=107.778399 CGD=2.912659p CGS=4.104626p PB=1.644996 KF=0.163471f
+ AF=499.524566m)
*** N-Channel JFET Process 50
.MODEL 2N5949 NJF (VTO=-3.061588 BETA=286.155879m LAMBDA=20m IS=10f
+ RS=239.291052 CGD=1.542479p CGS=2.567003p PB=1.49 KF=7.905907f AF=499.953m)
*** N-Channel JFET Process 50
.MODEL 2N5950 NJF (VTO=-3.061588 BETA=286.155879m LAMBDA=20m IS=10f
+ RS=239.291052 CGD=1.542479p CGS=2.567003p PB=1.49 KF=7.905907f AF=499.953m)
*** N-Channel JFET Process 50
.MODEL 2N5951 NJF (VTO=-3.061588 BETA=286.155879m LAMBDA=20m IS=10f
+ RS=239.291052 CGD=1.542479p CGS=2.567003p PB=1.49 KF=7.905907f AF=499.953m)
*** N-Channel JFET Process 50
.MODEL 2N5952 NJF (VTO=-1.760992 BETA=6.596618m LAMBDA=20m IS=10f RS=173.517062
+ CGD=1.542479p CGS=2.567003p PB=1.49 KF=8.819013E-018 AF=499.150595m)
*** N-Channel JFET Process 50
.MODEL 2N5953 NJF (VTO=-1.760992 BETA=6.596618m LAMBDA=20m IS=10f RS=173.517062
+ CGD=1.542479p CGS=2.567003p PB=1.49 KF=8.819013E-018 AF=499.150595m)
*** N-Channel Monolithic Dual JFET Pro.95
.MODEL 2N6483 NJF (VTO=-1.405677 BETA=539.204139u LAMBDA=599.999993u IS=10f
+ CGD=8.988282p CGS=26.714039p PB=250.738777m KF=1.000000E-018 AF=500m)
*** N-Channel Monolithic Dual JFET Pro.95
.MODEL 2N6484 NJF (VTO=-1.405677 BETA=539.204139u LAMBDA=599.999993u IS=10f
+ CGD=8.988282p CGS=26.714039p PB=250.738777m KF=1.000000E-018 AF=500m)
*** N-Channel Monolithic Dual JFET Pro.95
.MODEL 2N6485 NJF (VTO=-1.405677 BETA=539.204139u LAMBDA=599.999993u IS=10f
+ CGD=8.988282p CGS=26.714039p PB=250.738777m KF=1.000000E-018 AF=500m)
*** N-Channel JFET Process 50
.MODEL BF244A NJF (VTO=-3.061588 BETA=286.155879m LAMBDA=20m IS=10f
+ RS=239.291052 CGD=1.542479p CGS=2.567003p PB=1.49 KF=7.905907f AF=499.953m)
*** N-Channel JFET Process 50
.MODEL BF244B NJF (VTO=-3.061588 BETA=286.155879m LAMBDA=20m IS=10f
+ RS=239.291052 CGD=1.542479p CGS=2.567003p PB=1.49 KF=7.905907f AF=499.953m)
*** N-Channel JFET Process 50
.MODEL BF244C NJF (VTO=-3.061588 BETA=286.155879m LAMBDA=20m IS=10f
+ RS=239.291052 CGD=1.542479p CGS=2.567003p PB=1.49 KF=7.905907f AF=499.953m)
*** N-Channel JFET Process 50
.MODEL BF245A NJF (VTO=-3.061588 BETA=286.155879m LAMBDA=20m IS=10f
+ RS=239.291052 CGD=1.542479p CGS=2.567003p PB=1.49 KF=7.905907f AF=499.953m)
*** N-Channel JFET Process 50
.MODEL BF245B NJF (VTO=-3.061588 BETA=286.155879m LAMBDA=20m IS=10f
+ RS=239.291052 CGD=1.542479p CGS=2.567003p PB=1.49 KF=7.905907f AF=499.953m)
*** N-Channel JFET Process 50
.MODEL BF245C NJF (VTO=-3.061588 BETA=286.155879m LAMBDA=20m IS=10f
+ RS=239.291052 CGD=1.542479p CGS=2.567003p PB=1.49 KF=7.905907f AF=499.953m)
*** N-Channel JFET Process 51
.MODEL BF246A NJF (VTO=-2.81041 BETA=4.644731m LAMBDA=10m IS=10f RS=2.483091
+ CGD=5.321821p CGS=9.310367p PB=2.449314 KF=1.462538E-018 AF=499.910353m)
*** N-Channel JFET Process 51
.MODEL BF246B NJF (VTO=-2.81041 BETA=4.644731m LAMBDA=10m IS=10f RS=2.483091
+ CGD=5.321821p CGS=9.310367p PB=2.449314 KF=1.462538E-018 AF=499.910353m)
*** N-Channel JFET Process 51
.MODEL BF246C NJF (VTO=-2.81041 BETA=4.644731m LAMBDA=10m IS=10f RS=2.483091
+ CGD=5.321821p CGS=9.310367p PB=2.449314 KF=1.462538E-018 AF=499.910353m)
*** N-Channel JFET Process 51
.MODEL BF247A NJF (VTO=-2.81041 BETA=4.644731m LAMBDA=10m IS=10f RS=2.483091
+ CGD=5.321821p CGS=9.310367p PB=2.449314 KF=1.462538E-018 AF=499.910353m)
*** N-Channel JFET Process 51
.MODEL BF247B NJF (VTO=-2.81041 BETA=4.644731m LAMBDA=10m IS=10f RS=2.483091
+ CGD=5.321821p CGS=9.310367p PB=2.449314 KF=1.462538E-018 AF=499.910353m)
*** N-Channel JFET Process 51
.MODEL BF247C NJF (VTO=-2.81041 BETA=4.644731m LAMBDA=10m IS=10f RS=2.483091
+ CGD=5.321821p CGS=9.310367p PB=2.449314 KF=1.462538E-018 AF=499.910353m)
*** N-Channel JFET Process 50
.MODEL BF256A NJF (VTO=-3.061588 BETA=286.155879m LAMBDA=20m IS=10f