*//////////////////////////////////////////////////////////////////////
* (C) National Semiconductor, Corporation.
* Models developed and under copyright by:
* National Semiconductor, Corporation.  
*/////////////////////////////////////////////////////////////////////
* Legal Notice:  
* The model may be copied, and distributed without any modifications;
* however, reselling or licensing the material is illegal.
* We reserve the right to make changes to the model without prior notice. 
* Pspice Models are provided "AS IS, WITH NO WARRANTY OF ANY KIND" 
* ///////////////////////////////////////////////////////////////////
* For more information, and the latest models,
* please visit the models section of our website at
*       http://www.national.com/models/
*////////////////////////////////////////////////////////////////////
*CLC452 MACROMODEL
*PINOUT ORDER -IN +IN VCC VEE OUT
*PINOUT ORDER  2   3   7   4   6
.SUBCKT CLC452 2 3 7 4 6
* !!!!!!!!
* NOTE !!! ADJUST VALUES BELOW PER TOTAL SUPPLY VOLTAGE
* UNADJUSTED MODEL IS FOR 10 VOLTS TOTAL SUPPLY
* !!!!!!!!
*
* BEGIN ADJUSTMENTS
*
* TOTAL SUPPLY VOLTAGE    F1     R3      R9
*              5 VOLTS   1.27    90     725
*             10 VOLTS   1.45    80     505
*
* FOR 5 VOLTS TOTAL
* USE THESE THREE LINES
*F1 0 11 V10 1.27
*R3 54 49 90
*R9 11 23 725
*
* FOR 10 VOLTS TOTAL
* USE THESE THREE LINES
F1 0 11 V10 1.45
R3 54 49 80
R9 11 23 505
*
* END ADJUSTMENTS
*
R8 11 0 1.8E5
C7 14 0 37E-12
V3 7 5 1.5
V4 1 4 1.5
V5 54 2 1E-3
D1 1 54 D1M
D2 54 5 D1M
D3 3 5 D1M
D4 1 3 D1M
R1 3 0 450E3
R2 29 0 500
R6 25 0 500
R18 31 0 500
E10 45 46 3 0 0.9992
E6 43 0 30 0 1
E7 28 0 32 0 1
E8 8 0 26 0 1
V10 45 39 0
C2 39 0 0.675E-12
C3 3 0 1.35E-12
V13 9 0 0
E2 23 13 37 0 1
RGN 37 0 1E15
D6 11 12 D6M
E1 12 0 23 0 1.0
C6 23 9 2.1E-12
G3 0 14 23 0 0.1
R10 14 0 10
G4 0 19 14 0 0.1
R11 19 0 10
C8 19 0 25E-12
I1 0 40 1.068E-4
D10 12 11 D6M
I5 0 41 1.068E-4
E3 22 23 37 0 1
I3 0 38 1E-3
Q9 7 18 27 Q9M
R14 24 16 1000E6
R15 55 16 1000E6
G6 0 26 16 0 2.5E-12
D8 34 7 D8M
Q10 7 19 17 Q10M
Q11 4 17 27 Q11M
D5 38 0 D5M
V11 37 38 -0.71465
R16 26 25 1
L1 25 0 3.2E-7
C4 27 0 2E-12
D17 40 0 DI2M
Q12 4 19 18 Q12M
D19 41 0 DI2M
G7 0 32 0 4 9E-4
R21 20 6 1000
G8 0 30 0 7 9E-4
R24 30 29 1
L2 29 0 5.3E-7
R25 32 31 1
L3 31 0 5.3E-7
I6 0 42 1.068E-4
I2 0 44 1.068E-4
D20 42 0 DI1M
I7 17 4 1680E-6
D15 4 36 D15M
I10 7 18 1680E-6
D21 44 0 DI1M
E4 10 0 0 33 1E6
R29 33 43 1
R30 33 28 1
R31 33 8 1
R32 10 33 1
G1 0 3 44 42 1.87E-3
L5 49 39 4E-9
G2 0 2 41 40 2.63E-3
R4 10 46 1000E6
I11 0 47 1.068E-4
I12 0 48 1.068E-4
D9 47 0 DE1M
E5 10 46 48 47 0.625
D16 48 0 DE1M
V9 34 22 1.3
V12 13 36 1.3
L4 20 6 2E-9
R20 49 39 25
R27 27 20 12
I8 0 2 10E-6
I9 3 0 4.5E-6
C1 54 0 0.3E-12
I4 7 4 -1.95E-3
R13 7 4 50E3
E12 24 0 54 0 1
E13 55 0 3 0 1
.MODEL D1M D (IS=1E-16)
.MODEL D6M D (IS=5.002E-16)
.MODEL Q9M NPN (BF=75)
.MODEL D8M D (IS=1E-15)
.MODEL D15M D (IS=1E-15)
.MODEL Q10M NPN (BF=75)
.MODEL Q11M PNP (BF=75)
.MODEL D5M D (IS=7E-9 M=.333 N=1.67
+ RS=2.95E-01 TT=2.88E-09 VJ=.75)
.MODEL Q12M PNP (BF=75)
.MODEL DE1M D (BV=100V CJO=4E-12 IS=1E-16
+ KF=8.0E-17 M=0.45 N=2 RS=0.8 TT=6E-09 VJ=0.6V)
.MODEL DI1M D (BV=100V CJO=4E-12 IS=1E-16
+ KF=1.5E-16 M=0.45 N=2 RS=0.8 TT=6E-09 VJ=0.6V)
.MODEL DI2M D (BV=100V CJO=4E-12 IS=1E-16
+ KF=5.0E-17 M=0.45 N=2 RS=0.8 TT=6E-09 VJ=0.6V)
.ENDS
*//////////////////////////////////////////////////////////////////////
* (C) National Semiconductor, Corporation.
* Models developed and under copyright by:
* National Semiconductor, Corporation.
*/////////////////////////////////////////////////////////////////////
* Legal Notice:
* The model may be copied, and distributed without any modifications;
* however, reselling or licensing the material is illegal.
* We reserve the right to make changes to the model without prior notice.
* Pspice Models are provided "AS IS, WITH NO WARRANTY OF ANY KIND"
*////////////////////////////////////////////////////////////////////
* For more information, and our latest models,
* please visit the models section of our website at
*       http://www.national.com/models/
*////////////////////////////////////////////////////////////////////
* LM7372 SPICE MODEL
* PINOUT IS FOR A AMPLIFIER ONLY
* PINOUT ORDER -IN +IN +V -V OUT
* PINOUT        2   3   8  4  1
.SUBCKT LM7372 2 3 8 4 1
* COMPONENTS F1,R40,C9,C10,C12,C13,V11,V12
* R43, AND MODELS QON AND QOP CHANGE VALUE
* FOR TOTAL SUPPLY VOLTAGE FROM 10 TO 30
* VOLTS
* SUPPLY VOLTS TOTAL   10     30
* F1                  -0.8   -1.0
* C9                   20P    16P
* C10                   8P     7P
* C12,13              0.7P   0.6P
* R40    SLEW         150     40
* V11,V12             2.3     3.0
* R43                 7.5     8.8
* MODEL QON BF        140     240
* MODEL QOP BF        140     240
* VALUES ARE GIVEN FOR 10 AND 30 VOLTS
* MODEL IS SET UP FOR 30 VOLTS
* START 30 VOLT GROUP
F1 40 0 V14 -1.0
R40 40 32 40
C9 30 0 16E-12
C10 29 0 7E-12
C12 18 0 0.6E-12
C13 28 0 0.6E-12
V11 34 37 3.0
V12 36 31 3.0
R43 10 46 8.8
.MODEL QON NPN VAF=150 BF=240
+ IKF=0.7 RE=1 RC=1
.MODEL QOP PNP VAF=150 BF=240
+ IKF=0.7 RE=1 RC=1
* END 30 VOLT GROUP
* START 10 VOLT GROUP
*F1 40 0 V14 -0.8
*R40 40 32 150
*C9 30 0 20E-12
*C10 29 0 8E-12
*C12 18 0 0.7E-12
*C13 28 0 0.7E-12
*V11 34 37 2.3
*V12 36 31 2.3
*R43 10 46 7.5
*.MODEL QON NPN VAF=150 BF=140
*+ IKF=0.7 RE=1 RC=1
*.MODEL QOP PNP VAF=150 BF=140
*+ IKF=0.7 RE=1 RC=1
* END 10 VOLT GROUP
Q17 4 9 10 QOP
Q21 8 11 10 QON
D5 1 8 DD
D6 4 1 DD
D7 12 0 DIN
D8 13 0 DIN
I8 0 12 0.1E-3
I9 0 13 0.1E-3
E2 14 0 4 0 1
E3 15 0 8 0 1
D9 16 0 DVN
D10 17 0 DVN
I10 0 16 0.1E-3
I11 0 17 0.1E-3
E4 18 2 16 17 6.5
G2 3 18 12 13 7.83E-4
R22 4 8 200E3
E5 19 0 15 0 1
E6 20 0 14 0 1
E7 21 0 22 0 1
R30 19 23 1E6
R31 20 24 1E6
R32 21 25 1E6
R33 0 23 100
R34 0 24 100
R35 0 25 100
E10 26 3 25 0 0.11
R36 18 22 1.6E6
R37 22 3 1.6E6
C6 19 23 1E-12
C7 20 24 1E-12
C8 21 25 2E-12
E11 27 26 24 0 0.15
E12 28 27 23 0 0.15
Q22 14 29 11 QDP
Q23 15 29 9 QDN
I12 8 4 5.04E-3
I13 15 11 1.3E-3
I14 9 14 1.3E-3
R38 0 30 10
R39 0 29 10
E15 31 32 33 0 1
E16 32 34 33 0 1
E17 35 0 32 0 1
D11 36 15 DD
D12 14 37 DD
I15 0 38 1E-3
D13 38 0 DD
V13 33 38 -0.71465
C11 32 0 6E-12
D14 39 40 DD
D15 40 41 DD
R41 0 40 1.45E6
E18 42 0 43 0 1
R42 42 44 110
E19 45 0 18 0 1
V14 44 45 0
G3 30 0 32 0 0.1
G4 29 0 30 0 0.1
C14 10 0 2E-12
L1 46 1 2E-9
R45 46 1 1E3
E20 39 35 33 0 1
E21 41 35 33 0 -1
R46 22 0 40E6
I16 18 0 2.7E-6
I17 28 0 2.6E-6
V15 43 28 4E-3
D16 18 47 DIL
D17 28 47 DIL
D18 48 18 DIL
D19 48 28 DIL
V16 15 47 2.6
V17 48 14 2.6
R47 35 0 1E12
R48 0 33 1E12
R49 31 0 1E12
R50 34 0 1E12
R51 41 0 1E12
R52 43 0 1E12
.MODEL QDP PNP
.MODEL QDN NPN
.MODEL DD D
.MODEL DIL D RS=100
.MODEL DC D IS=5.002E-16
.MODEL DVN D KF=2.5E-16
.MODEL DIN D KF=8E-17
.ENDS
*//////////////////////////////////////////////////////////////////////
* (C) National Semiconductor, Corporation.
* Models developed and under copyright by:
* National Semiconductor, Corporation.  
*/////////////////////////////////////////////////////////////////////
* Legal Notice:  
* The model may be copied, and distributed without any modifications;
* however, reselling or licensing the material is illegal.
* We reserve the right to make changes to the model without prior notice. 
* Pspice Models are provided "AS IS, WITH NO WARRANTY OF ANY KIND" 
*////////////////////////////////////////////////////////////////////
* NATIONAL LM8272
* PINOUT ORDER IS
*  +IN -IN VCC VEE OUT
*   3   2   7   4   6
.SUBCKT LM8272 3 2 7 4 6
RIQ 4 7 140E3
CBA 14 17 0.01E-12
V5 8 34 0.7E-3
Q6 5 8 11 Q6M 
R2 12 38 100.0E3
D1 46 31 D1M 
E1 16 0 17 0 1.0
V6 31 12 0.75
V7 34 51 1.2E-3
R3 2 36 500.0
R4 51 3 500.0
M1 20 12 46 46 MWPM
I1 7 46 100.0E-6
I2 41 4 50.0E-6
I3 7 44 50.0E-6
R5 29 27 500.0
E2 38 16 43 9 1.0
RE2 43 0 1.0E12
V4 7 43 2.0
R7 7 9 10.0E6
R20 9 4 10.0E6
Q7 26 36 37 Q6M 
R14 7 26 300.0
R15 7 5 300.0
R6 29 33 500.0
Q3 23 23 8 QQN
R18 37 42 500.0
Q9 42 18 4 QQN
R19 11 42 500.0
Q1 13 13 7 QQP
Q2 21 21 4 QQN
R16 28 4 300.0
R17 45 4 300.0
C4 19 6 8.0E-12
R8 17 19 330.0
R10 7 22 6.7
Q4 36 36 23 QQN
R11 4 15 5.8
Q5 8 8 49 QQN
R12 24 15 100.0
I5 32 7 4.0E-6
Q28 14 35 28 QQN
R13 25 22 100.0
Q8 49 49 36 QQN
R9 46 30 1.0
Q29 17 35 45 Q29M
Q30 50 20 4 QQN
Q31 20 20 4 QQN
Q32 6 50 15 Q32M
Q33 50 24 4 QQN
I6 4 35 4.0E-6
Q34 44 44 21 QQN
I7 39 7 2.0E-6
V10 7 40 1.4
Q35 7 44 50 QQN
Q36 6 30 22 Q36M
Q37 12 25 7 QQP
Q38 41 41 13 QQP
Q40 50 41 46 QQP
Q41 14 32 26 QQP
Q42 17 32 5 Q42M
Q43 29 39 7 QQP
Q44 45 34 27 Q44M
Q45 28 36 33 Q45M
Q46 18 40 29 QQP
Q47 18 18 4 QQN
.MODEL QQN NPN
.MODEL QQP PNP
.MODEL Q44M PNP BF=85.0
.MODEL Q45M PNP BF=85.0
.MODEL Q6M NPN BF=200.0
.MODEL Q29M NPN VAF=150.0
.MODEL Q42M PNP VAF=150.0
.MODEL Q32M NPN BF=1000.0 VAF=125.0
.MODEL Q36M PNP BF=165.0 VAF=100.0 RC=10
.MODEL MWPM PMOS KP=1.0E-3 VTO=-0.6
.MODEL D1M D IS=7.0E-14 M=0.45 N=2 TT=6.0E-9
.ENDS
* ////////////////////////////////////////////////////////////////////// 
*(C) National Semiconductor, Corporation. 
* Models developed and under copyright by: 
* National Semiconductor, Corporation. 
* ///////////////////////////////////////////////////////////////////// 
* Legal Notice: * The model may be copied, and distributed without any 
* modifications; 
* however, reselling or licensing the material is illegal. 
* We reserve the right to make changes to the model without prior notice. 
* Pspice Models are provided "AS IS, WITH NO WARRANTY OF ANY KIND"
* //////////////////////////////////////////////////////////////////// 
* LMH6643 SPICE MODEL
* PINOUT ORDER -IN +IN VCC VEE OUT
* PINOUT ORDER  2   3   7   4   6
.SUBCKT LMH6643 2 3 7 4 6
C4 30 94 7E-20
R50 94 14 700E3
C10 20 96 0.35E-15
R52 96 0 20E3
CC2 14 30 0.0085E-12
E1 39 0 14 0 16
C8 45 0 1E-12
C9 2 0 1E-12
RC1 42 0 1E12
I1 7 46 175E-6
I2 5 4 50E-6
D2 18 0 DVM
I3 7 12 50E-6
C1 13 92 8E-12
D7 23 0 DVM
R1 14 13 100
I4 0 18 1.068E-4
R2 7 15 1
R3 4 16 1
R4 17 98 100
R5 19 97 100
R6 46 8 1
R7 7 21 500
R8 7 22 500
R9 24 80 500
R10 25 80 500
I8 0 23 1.068E-4
I5 26 7 20E-6
I6 80 27 20E-6
I7 28 29 13E-6
E3 3 45 23 18 7.8
D8 37 0 DIM
Q1 30 27 24 Q2M
Q2 14 27 25 Q2M
Q3 34 9 80 Q1M
Q4 9 9 80 Q1M
Q5 92 34 16 Q5M
Q8 34 17 4 Q1M
D9 40 0 DIM
I9 0 37 1.068E-4
Q26 12 12 31 Q1M
Q27 7 12 34 Q1M
Q28 92 8 15 Q28M
Q29 20 19 7 Q29M
Q30 5 5 32 Q29M
Q31 34 5 46 Q29M
Q32 30 26 21 Q33M
Q33 14 26 22 Q33M
Q34 33 28 29 Q29M
Q35 84 35 36 Q35M
Q36 83 2 38 Q35M
R11 33 36 135
R12 33 38 135
Q37 32 32 7 Q29M
Q38 31 31 4 Q1M
R13 20 41 100E3
M1 9 20 46 46 WPM
I10 0 40 1.068E-4
E2 41 39 42 43 1
V3 7 42 2
R14 7 43 10E6
R15 43 80 10E6
D1 46 44 D1M
V4 44 20 0.75
V6 35 45 1E-3
IQA 7 4 -1.00E-3
G3 2 45 40 37 2.3E-4
D3 35 7 D3M
D4 2 7 D3M
D5 4 35 D3M
D6 4 2 D3M
V7 7 29 0.2
G1 0 48 7 0 1
R17 49 48 1
L2 0 49 10E-6
R20 0 49 10
G2 22 21 48 0 7.8E-7
G9 0 57 4 0 1
R21 74 57 1
L5 0 74 12E-6
R22 0 74 120
G10 21 22 57 0 -7.8E-7
R34 81 82 1
L6 82 0 20E-6
R35 82 0 100
G11 21 22 81 0 2.6E-8
G12 0 81 33 0 1
R48 92 6 3
E5 97 7 7 15 -6.7
E6 98 4 16 4 4.85
VCM1 4 80 1.5
VCM2 84 25 1.5
VCM3 83 24 1.5
.MODEL Q1M NPN
.MODEL Q2M NPN (VAF=150)
.MODEL Q5M NPN (BF=1000 VAF=125)
.MODEL Q28M PNP (BF=165 VAF=100)
.MODEL Q29M PNP
.MODEL Q33M PNP (VAF=150)
.MODEL Q35M PNP (BF=406 KF=3E-17)
.MODEL WPM PMOS (KP=1E-3 VTO=-0.6)
.MODEL DVM D (IS=1E-16 KF=2.7E-15)
.MODEL DIM D (IS=1E-16 KF=4.5E-15)
.MODEL D1M D (IS=7E-14 M=0.45 N=2 TT=6E-09)
.MODEL D3M D (IS=3E-14)
.ENDS

*//////////////////////////////////////////////////////////////////////
* (C) National Semiconductor, Corporation.
* Models developed and under copyright by:
* National Semiconductor, Corporation.  
*/////////////////////////////////////////////////////////////////////
* Legal Notice:  
* The model may be copied, and distributed without any modifications;
* however, reselling or licensing the material is illegal.
* We reserve the right to make changes to the model without prior notice. 
* Pspice Models are provided "AS IS, WITH NO WARRANTY OF ANY KIND" 
*////////////////////////////////////////////////////////////////////
* PINOUT ORDER -IN +IN VCC VEE OUT
* PINOUT ORDER  2   3   7   4   6
.SUBCKT LMH6644 2 3 7 4 6
E1 39 0 14 0 16
C8 45 0 1E-12
C9 2 0 1E-12
RC1 42 0 1E12
I1 7 46 175E-6
I2 5 4 50E-6
D2 18 0 DVM
I3 7 12 50E-6
C1 13 92 8E-12
D7 23 0 DVM
R1 14 13 100
I4 0 18 1.068E-4
R2 7 15 1
R3 4 16 1
R4 17 98 100
R5 19 97 100
R6 46 8 1
R7 7 21 500
R8 7 22 500
R9 24 4 500
R10 25 4 500
I8 0 23 1.068E-4
I5 26 7 20E-6
I6 4 27 20E-6
I7 28 29 13E-6
CC2 14 30 0.0085E-12
E3 3 45 23 18 7.8
D8 37 0 DIM
Q1 30 27 24 Q2M
Q2 14 27 25 Q2M
Q3 34 9 4 Q1M
Q4 9 9 4 Q1M
Q5 92 34 16 Q5M
Q8 34 17 4 Q1M
D9 40 0 DIM
I9 0 37 1.068E-4
Q26 12 12 31 Q1M
Q27 7 12 34 Q1M
Q28 92 8 15 Q28M
Q29 20 19 7 Q29M
Q30 5 5 32 Q29M
Q31 34 5 46 Q29M
Q32 30 26 21 Q33M
Q33 14 26 22 Q33M
Q34 33 28 29 Q29M
Q35 25 35 36 Q35M
Q36 24 2 38 Q35M
R11 33 36 135
R12 33 38 135
Q37 32 32 7 Q29M
Q38 31 31 4 Q1M
R13 20 41 100E3
M1 9 20 46 46 WPM
I10 0 40 1.068E-4
E2 41 39 42 43 1
V3 7 42 2
R14 7 43 10E6
R15 43 4 10E6
D1 46 44 D1M
V4 44 20 0.75
V6 35 45 1E-3
IQA 7 4 -1.00E-3
G3 2 45 40 37 2.3E-4
D3 35 7 D3M
D4 2 7 D3M
D5 4 35 D3M
D6 4 2 D3M
V7 7 29 0.2
G1 0 48 7 0 1
R17 49 48 1
L2 0 49 10E-6
R20 0 49 10
G2 22 21 48 0 7.8E-7
G9 0 57 4 0 1
R21 74 57 1
L5 0 74 12E-6
R22 0 74 120
G10 21 22 57 0 -7.8E-7
R34 81 82 1
L6 82 0 20E-6
R35 82 0 100
G11 21 22 81 0 2.6E-8
G12 0 81 33 0 1
R48 92 6 3
E5 97 7 7 15 -6.7
E6 98 4 16 4 4.85
.MODEL Q1M NPN
.MODEL Q2M NPN (VAF=150)
.MODEL Q5M NPN (BF=1000 VAF=125)
.MODEL Q28M PNP (BF=165 VAF=100)
.MODEL Q29M PNP
.MODEL Q33M PNP (VAF=150)
.MODEL Q35M PNP (BF=406 KF=3E-17)
.MODEL WPM PMOS (KP=1E-3 VTO=-0.6)
.MODEL DVM D (IS=1E-16 KF=2.7E-15)
.MODEL DIM D (IS=1E-16 KF=4.5E-15)
.MODEL D1M D (IS=7E-14 M=0.45 N=2 TT=6E-09)
.MODEL D3M D (IS=3E-14)
.ENDS
*//////////////////////////////////////////////////////////////////////
* (C) National Semiconductor, Corporation.
* Models developed and under copyright by:
* National Semiconductor, Corporation.  
*/////////////////////////////////////////////////////////////////////
* Legal Notice:  
* The model may be copied, and distributed without any modifications;
* however, reselling or licensing the material is illegal.
* We reserve the right to make changes to the model without prior notice. 
* Pspice Models are provided "AS IS, WITH NO WARRANTY OF ANY KIND" 
*////////////////////////////////////////////////////////////////////
*BEGIN MODEL LMH6645
*PINOUT ORDER  -IN +IN V+ V- OUT
*PINOUT ORDER    4  3   5  2  1
.SUBCKT LMH6645 4 3 5 2 1
Q1 6 7 8 QIN
Q2 9 10 11 QIN
Q3 12 13 14 QN
Q4 13 13 14 QN
Q5 15 10 16 QIP
Q6 17 18 19 QIP
Q7 20 21 22 QP
Q12 23 24 25 QP
Q13 26 26 22 QP
Q14 27 27 26 QP
Q15 25 28 22 QP
Q16 13 29 20 QP
Q17 1 25 30 QOP
Q18 31 31 32 QN
Q19 32 32 33 QN
Q20 23 34 14 QN
Q21 1 23 35 QON
Q22 25 31 23 QN
R1 12 8 125
R2 12 11 125
R3 19 20 125
R4 16 20 125
R5 36 37 200
R7 6 22 300
R8 14 15 300
R9 14 17 300
R10 34 35 100
R11 28 30 100
R12 30 5 11.2
R13 2 35 12
V3 22 29 1.4
I1 21 22 4E-6
I4 24 14 0.85E-3
I5 22 31 0.85E-3
I6 22 25 2E-3
I7 23 14 2E-3
G1 23 14 38 39 -0.4E-3
R15 41 10 200
R16 38 42 50
C2 42 1 10E-12
R17 24 27 11.2
R18 14 33 12
Q24 43 43 7 QP
Q25 10 10 43 QP
Q26 7 7 44 QN
Q27 44 44 10 QN
D1 7 22 D1
D2 10 22 D1
D3 14 18 D1
D4 14 10 D1
D5 1 5 D1
D6 2 1 D1
V5 7 18 -0.35E-3
V6 37 18 -0.1E-3
D7 45 0 DIN
D8 46 0 DIN
I8 0 45 0.1E-3
I9 0 46 0.1E-3
E2 14 0 2 0 1
E3 22 0 5 0 1
C4 36 0 2E-12
C5 4 0 2E-12
D9 47 0 DVN
D10 48 0 DVN
I10 0 47 0.1E-3
I11 0 48 0.1E-3
E4 41 4 47 48 7.8
G2 36 41 45 46 2.8E-4
I12 2 5 0.115E-3
R22 2 5 97.3E3
E5 49 0 22 0 1
E6 50 0 14 0 1
E7 51 0 52 0 1
R30 49 53 1E6
R31 50 54 1E6
R32 51 55 1E6
R33 0 53 100
R34 0 54 100
R35 0 55 10E3
E10 56 3 55 0 8E-4
R36 41 52 1E9
R37 52 36 1E9
C6 49 53 1E-12
C7 50 54 3E-12
C8 51 55 3E-12
R6 9 22 300
E11 57 56 54 0 0.15
E12 36 57 53 0 0.05
G3 38 39 9 6 2E-3
G4 38 39 15 17 2E-3
R40 38 39 1E6
E14 39 14 22 14 0.5
D11 38 22 D1
D12 14 38 D1
C9 9 6 3E-12
C10 15 17 3E-12
.MODEL D1 D
.MODEL QN NPN
.MODEL QP PNP
.MODEL QON NPN VAF=40 RC=2 RE=3 IKF=0.1
.MODEL QOP PNP VAF=40 RC=2 RE=3 IKF=0.1
.MODEL QIN NPN KF=1.25E-15 BF=333
.MODEL QIP PNP KF=1.25E-15 BF=333
.MODEL DVN D KF=1.85E-16
.MODEL DIN D KF=8E-17
.ENDS
*END MODEL LMH6645

*////////////////////////////////////////////////////////////////////// 
*(C) National Semiconductor, Corporation. 
* Models developed and under copyright by: 
* National Semiconductor, Corporation. 
*///////////////////////////////////////////////////////////////////// 
* Legal Notice: 
* The model may be copied, and distributed without any modifications; 
* however, reselling or licensing the material is illegal. 
* We reserve the right to make changes to the model without prior notice. 
* Pspice Models are provided "AS IS, WITH NO WARRANTY OF ANY KIND" 
*//////////////////////////////////////////////////////////////////// 
*BEGIN MODEL LMH6646
*PINOUT ORDER  -IN +IN V+ V- OUT
*PINOUT ORDER    4  3   5  2  1
.SUBCKT LMH6646 4 3 5 2 1
Q1 6 7 8 QIN
Q2 9 10 11 QIN
Q3 12 13 14 QN
Q4 13 13 14 QN
Q5 15 10 16 QIP
Q6 17 18 19 QIP
Q7 20 21 22 QP
Q12 23 24 25 QP
Q13 26 26 22 QP
Q14 27 27 26 QP
Q15 25 28 22 QP
Q16 13 29 20 QP
Q17 1 25 30 QOP
Q18 31 31 32 QN
Q19 32 32 33 QN
Q20 23 34 14 QN
Q21 1 23 35 QON
Q22 25 31 23 QN
R1 12 8 125
R2 12 11 125
R3 19 20 125
R4 16 20 125
R5 36 37 200
R7 6 22 300
R8 14 15 300
R9 14 17 300
R10 34 35 100
R11 28 30 100
R12 30 5 11.2
R13 2 35 12
V3 22 29 1.4
I1 21 22 4E-6
I4 24 14 0.85E-3
I5 22 31 0.85E-3
I6 22 25 2E-3
I7 23 14 2E-3
G1 23 14 38 39 -0.4E-3
R15 41 10 200
R16 38 42 50
C2 42 1 10E-12
R17 24 27 11.2
R18 14 33 12
Q24 43 43 7 QP
Q25 10 10 43 QP
Q26 7 7 44 QN
Q27 44 44 10 QN
D1 7 22 D1
D2 10 22 D1
D3 14 18 D1
D4 14 10 D1
D5 1 5 D1
D6 2 1 D1
V5 7 18 -0.35E-3
V6 37 18 -0.1E-3
D7 45 0 DIN
D8 46 0 DIN
I8 0 45 0.1E-3
I9 0 46 0.1E-3
E2 14 0 2 0 1
E3 22 0 5 0 1
C4 36 0 2E-12
C5 4 0 2E-12
D9 47 0 DVN
D10 48 0 DVN
I10 0 47 0.1E-3
I11 0 48 0.1E-3
E4 41 4 47 48 7.8
G2 36 41 45 46 2.8E-4
I12 2 5 0.115E-3
R22 2 5 97.3E3
E5 49 0 22 0 1
E6 50 0 14 0 1
E7 51 0 52 0 1
R30 49 53 1E6
R31 50 54 1E6
R32 51 55 1E6
R33 0 53 100
R34 0 54 100
R35 0 55 10E3
E10 56 3 55 0 8E-4
R36 41 52 1E9
R37 52 36 1E9
C6 49 53 1E-12
C7 50 54 3E-12
C8 51 55 3E-12
R6 9 22 300
E11 57 56 54 0 0.15
E12 36 57 53 0 0.05
G3 38 39 9 6 2E-3
G4 38 39 15 17 2E-3
R40 38 39 1E6
E14 39 14 22 14 0.5
D11 38 22 D1
D12 14 38 D1
C9 9 6 3E-12
C10 15 17 3E-12
.MODEL D1 D
.MODEL QN NPN
.MODEL QP PNP
.MODEL QON NPN VAF=40 RC=2 RE=3 IKF=0.1
.MODEL QOP PNP VAF=40 RC=2 RE=3 IKF=0.1
.MODEL QIN NPN KF=1.25E-15 BF=333
.MODEL QIP PNP KF=1.25E-15 BF=333
.MODEL DVN D KF=1.85E-16
.MODEL DIN D KF=8E-17
.ENDS
*END MODEL LMH6646
*////////////////////////////////////////////////////////////////////// 
*(C) National Semiconductor, Corporation. 
* Models developed and under copyright by: 
* National Semiconductor, Corporation. 
*///////////////////////////////////////////////////////////////////// 
* Legal Notice: 
* The model may be copied, and distributed without any modifications; 
* however, reselling or licensing the material is illegal. 
* We reserve the right to make changes to the model without prior notice. 
* Pspice Models are provided "AS IS, WITH NO WARRANTY OF ANY KIND" 
*//////////////////////////////////////////////////////////////////// 
*BEGIN MODEL LMH6647
*PINOUT ORDER  -IN +IN V+ V- OUT
*PINOUT ORDER    4  3   5  2  1
.SUBCKT LMH6647 4 3 5 2 1
Q1 6 7 8 QIN
Q2 9 10 11 QIN
Q3 12 13 14 QN
Q4 13 13 14 QN
Q5 15 10 16 QIP
Q6 17 18 19 QIP
Q7 20 21 22 QP
Q12 23 24 25 QP
Q13 26 26 22 QP
Q14 27 27 26 QP
Q15 25 28 22 QP
Q16 13 29 20 QP
Q17 1 25 30 QOP
Q18 31 31 32 QN
Q19 32 32 33 QN
Q20 23 34 14 QN
Q21 1 23 35 QON
Q22 25 31 23 QN
R1 12 8 125
R2 12 11 125
R3 19 20 125
R4 16 20 125
R5 36 37 200
R7 6 22 300
R8 14 15 300
R9 14 17 300
R10 34 35 100
R11 28 30 100
R12 30 5 11.2
R13 2 35 12
V3 22 29 1.4
I1 21 22 4E-6
I4 24 14 0.85E-3
I5 22 31 0.85E-3
I6 22 25 2E-3
I7 23 14 2E-3
G1 23 14 38 39 -0.4E-3
R15 41 10 200
R16 38 42 50
C2 42 1 10E-12
R17 24 27 11.2
R18 14 33 12
Q24 43 43 7 QP
Q25 10 10 43 QP
Q26 7 7 44 QN
Q27 44 44 10 QN
D1 7 22 D1
D2 10 22 D1
D3 14 18 D1
D4 14 10 D1
D5 1 5 D1
D6 2 1 D1
V5 7 18 -0.35E-3
V6 37 18 -0.1E-3
D7 45 0 DIN
D8 46 0 DIN
I8 0 45 0.1E-3
I9 0 46 0.1E-3
E2 14 0 2 0 1
E3 22 0 5 0 1
C4 36 0 2E-12
C5 4 0 2E-12
D9 47 0 DVN
D10 48 0 DVN
I10 0 47 0.1E-3
I11 0 48 0.1E-3
E4 41 4 47 48 7.8
G2 36 41 45 46 2.8E-4
I12 2 5 0.115E-3
R22 2 5 97.3E3
E5 49 0 22 0 1
E6 50 0 14 0 1
E7 51 0 52 0 1
R30 49 53 1E6
R31 50 54 1E6
R32 51 55 1E6
R33 0 53 100
R34 0 54 100
R35 0 55 10E3
E10 56 3 55 0 8E-4
R36 41 52 1E9
R37 52 36 1E9
C6 49 53 1E-12
C7 50 54 3E-12
C8 51 55 3E-12
R6 9 22 300
E11 57 56 54 0 0.15
E12 36 57 53 0 0.05
G3 38 39 9 6 2E-3
G4 38 39 15 17 2E-3
R40 38 39 1E6
E14 39 14 22 14 0.5
D11 38 22 D1
D12 14 38 D1
C9 9 6 3E-12
C10 15 17 3E-12
.MODEL D1 D
.MODEL QN NPN
.MODEL QP PNP
.MODEL QON NPN VAF=40 RC=2 RE=3 IKF=0.1
.MODEL QOP PNP VAF=40 RC=2 RE=3 IKF=0.1
.MODEL QIN NPN KF=1.25E-15 BF=333
.MODEL QIP PNP KF=1.25E-15 BF=333
.MODEL DVN D KF=1.85E-16
.MODEL DIN D KF=8E-17
.ENDS
*END MODEL LMH6647
*//////////////////////////////////////////////////////////////////////
* (C) National Semiconductor, Corporation.
* Models developed and under copyright by:
* National Semiconductor, Corporation.  
*/////////////////////////////////////////////////////////////////////
* Legal Notice:  
* The model may be copied, and distributed without any modifications;
* however, reselling or licensing the material is illegal.
* We reserve the right to make changes to the model without prior notice. 
* Pspice Models are provided "AS IS, WITH NO WARRANTY OF ANY KIND" 
*////////////////////////////////////////////////////////////////////
* LMH6655 SUBCIRCUIT
* NOTE - THIS MODEL HAS PINOUT
* FOR THE A AMPLIFIER ONLY
* PINOUT ORDER  -IN +IN VCC VEE OUT
* PINOUT         2   3   8   4   1
.SUBCKT LMH6655 2 3 8 4 1
I2 8 32 1.25E-3
I5 39 4 1.25E-3
R1 9 0 1.8E6
D1 9 34 D1M
D2 18 0 DV2M
E1 34 0 5 0 1.0
R2 9 5 100
C1 5 12 2.2E-12
D7 23 0 DV2M
G2 0 13 5 0 0.1
I4 0 18 1.068E-4
R3 13 0 10
C2 13 0 75E-12
G4 0 14 13 0 0.1
R4 14 0 10
C3 14 0 5.2E-12
D10 19 8 D10M
V1 19 20 2.1
I8 0 23 1.068E-4
D15 4 21 D10M
V2 22 21 1.73
I7 28 29 3.2E-6
E3 3 45 23 18 0.55
D8 37 0 DI8M
C4 26 0 6.5E-12
D11 34 9 D1M
E2 5 22 27 0 1
E4 20 5 27 0 1
I3 0 30 1E-3
D12 30 0 D12M
D9 40 0 DI8M
I9 0 37 1.068E-4
V3 27 30 -0.71465
R6 8 4 50E3
V4 12 0 0
L1 31 1 2.5E-9
I1 8 4 0.5E-3
Q34 33 28 29 Q34M
Q35 17 35 36 Q35M
Q36 16 2 38 Q35M
Q1 8 32 26 Q1M
R11 33 36 325
R12 33 38 325
Q2 8 14 39 Q2M
Q3 4 39 26 Q3M
Q4 4 14 32 Q4M
I10 0 40 1.068E-4
R7 31 1 1E3
R9 26 31 9.7
V6 35 45 1E-3
G3 2 45 40 37 0.49E-6
R10 16 4 2E3
R13 17 4 2E3
G5 0 9 16 17 0.815E-3
G6 0 9 0 81 -1E-8
G7 0 9 0 48 -8.8E-7
D3 35 8 D3M
I6 35 4 2.95E-6
I11 2 4 2.65E-6
D4 2 8 D3M
D5 4 35 D3M
D6 4 2 D3M
V7 8 29 0.63
G1 0 48 8 0 1
R17 49 48 1
L2 0 49 1.2E-6
R20 0 49 1200
G9 0 57 4 0 1
R21 74 57 1
L5 0 74 1.2E-6
R22 0 74 1200
G10 0 9 57 0 8.8E-8
R34 81 82 1
L6 82 0 2E-5
R35 82 0 3E3
R23 3 0 1E12
R24 27 0 1E12
G12 0 81 33 0 1
C8 45 0 1.8E-12
C9 2 0 1.8E-12
D18 1 8 D3M
D19 4 1 D3M
.MODEL D1M D IS=5.002E-16
.MODEL DV2M D IS=1E-16 KF=2E-14
.MODEL D10M D IS=1E-15
.MODEL DI8M D IS=1E-16 KF=1E-15
.MODEL D12M D IS=7E-9 M=0.333 N=1.67
+ RS=2.95E-01 TT=2.88E-09 VJ=0.75
.MODEL Q34M PNP
.MODEL Q35M PNP BF=40 KF=1.1E-14
.MODEL Q1M NPN BF=224 RC=1 RE=0.3
.MODEL Q2M NPN BF=75
.MODEL Q3M PNP BF=149 RC=3 RE=1
.MODEL Q4M PNP BF=75
.MODEL D14M D IS=1.0E-14 RS=2700
.MODEL D3M D IS=3E-14 RS=0.5
.ENDS
/////////////////////////////////////////////////////
* (C) National Semiconductor, Corporation.
* Models developed and under copyright by:
* National Semiconductor, Corporation.
*/////////////////////////////////////////////////////////////////////
* Legal Notice:
* The model may be copied, and distributed without any modifications;
* however, reselling or licensing the material is illegal.
* We reserve the right to make changes to the model without prior notice.
* Pspice Models are provided "AS IS, WITH NO WARRANTY OF ANY KIND"
*////////////////////////////////////////////////////////////////////
* For more information, and our latest models,
* please visit the models section of our website at
*       http://www.national.com/models/
*////////////////////////////////////////////////////////////////////
* BEGIN MODEL LMH6657
* THIS MODEL WILL FUNCTION AS
* A MODEL FOR ONE HALF OF THE
* LMH6658
* PINOUT ORDER  +IN -IN +V -V OUT
* PINOUT ORDER   1   2   3  4  5
.SUBCKT LMH6657 1 2 3 4 5
Q17 4 6 7 QOP
Q21 3 8 7 QON
D5 5 3 DD
D6 4 5 DD
D7 9 0 DIN
D8 10 0 DIN
I8 0 9 0.1E-3
I9 0 10 0.1E-3
E2 11 0 4 0 1
E3 12 0 3 0 1
D9 13 0 DVN
D10 14 0 DVN
I10 0 13 0.1E-3
I11 0 14 0.1E-3
E4 15 2 13 14 5.1
G2 1 15 9 10 1.7E-4
R22 4 3 16.7E3
E5 16 0 12 0 1
E6 17 0 11 0 1
E7 18 0 19 0 1
R30 16 20 1E6
R31 17 21 1E6
R32 18 22 1E6
R33 0 20 100
R34 0 21 100
R35 0 22 100
E10 23 1 22 0 0.2
R36 24 19 1E3
R37 19 25 1E3
C6 16 20 1.5E-12
C7 17 21 20E-12
C8 18 22 1E-12
E11 26 23 21 0 0.54
E12 27 26 20 0 0.67
Q22 11 28 8 QDP
Q23 12 28 6 QDN
I12 3 4 5.3E-3
I13 12 8 0.6E-3
I14 6 11 0.6E-3
R38 0 29 10
R39 0 28 10
C9 29 0 35E-12
C10 28 0 11E-12
E15 30 31 32 0 1
E16 31 33 32 0 1
E17 34 0 31 0 1
D11 35 12 DD
D12 11 36 DD
V11 33 36 1.397
V12 35 30 1.417
I15 0 37 1E-3
D13 37 0 DD
V13 32 37 -0.6551
C11 31 0 10E-12
D14 38 39 DD
D15 39 40 DD
R40 39 31 94
R41 0 39 10E6
C12 15 0 1.8E-12
C13 27 0 1.8E-12
R43 7 41 3.5
G3 29 0 31 0 0.1
G4 28 0 29 0 0.1
L1 41 5 4E-9
R45 41 5 100
E20 38 34 32 0 1
E21 40 34 32 0 -1
C15 15 27 1.8E-12
G5 39 0 42 43 -6E-3
Q24 42 44 45 QIP
Q25 43 27 46 QIP
R49 45 47 125
R50 46 47 125
Q26 48 49 12 QIP
Q27 49 49 12 QIP
I16 49 11 2E-3
R51 50 42 333
R52 50 43 333
V14 48 47 0.95
V15 50 11 -0.2
C17 42 43 0.1E-12
E23 51 0 27 15 -1
E24 52 0 27 15 1
D16 51 53 DD
D17 52 53 DD
R53 0 53 1E3
G6 11 49 53 0 -1E-3
R54 51 53 1E6
R55 52 53 1E6
R56 0 51 1E6
R57 52 0 1E6
D18 44 12 DIC
D19 27 12 DIC
E25 25 0 1 0 1
E26 24 0 15 0 1
C18 5 0 0.1E-12
R58 31 30 1E9
R59 33 31 1E9
R60 2 15 1E9
R61 1 23 1E9
R62 23 26 1E9
R63 26 27 1E9
V16 15 44 1.05E-3
R64 34 40 1E9
R65 34 38 1E9
.MODEL QDP PNP
.MODEL QDN NPN
.MODEL QON NPN VAF=150 BF=360 IKF=1.5 RE=1 RC=1
.MODEL QOP PNP VAF=150 BF=360 IKF=1.5 RE=1 RC=1
.MODEL QIP PNP VAF=150 BF=90 IKF=5E-3 RE=1 RC=1
.MODEL DIC D RS=500
.MODEL DD D
.MODEL DVN D KF=4E-16
.MODEL DIN D KF=26E-14
.ENDS
* END MODEL LMH6657
*//////////////////////////////////////////////////////////////////////
* (C) National Semiconductor, Corporation.
* Models developed and under copyright by:
* National Semiconductor, Corporation.
*/////////////////////////////////////////////////////////////////////
* Legal Notice:
* The model may be copied, and distributed without any modifications;
* however, reselling or licensing the material is illegal.
* We reserve the right to make changes to the model without prior notice.
* Pspice Models are provided "AS IS, WITH NO WARRANTY OF ANY KIND"
*////////////////////////////////////////////////////////////////////
* For more information, and our latest models,
* please visit the models section of our website at
*       http://www.national.com/models/
*////////////////////////////////////////////////////////////////////
* LMH6672 SUBCIRCUIT
* REV R - 3-OCT-2001
* THIS PINOUT IS FOR
* AMPLIFIER A ONLY
* PINOUT ORDER  -IN +IN VCC VEE OUT
* PINOUT         2   3   8   4   1
.SUBCKT LMH6672 2 3 8 4 1
R1 7 0 1.8E6
D1 7 34 D1M
D2 18 0 DV2M
E1 34 0 5 0 1.0
R2 7 5 1000
C1 5 12 2.88E-12
D7 23 0 DV2M
G2 0 13 5 0 0.1
I4 0 18 1.068E-4
R3 13 0 10
C2 13 0 70E-12
G4 0 14 13 0 0.1
R4 14 0 10
C3 14 0 25E-12
D10 19 8 D10M
V1 19 20 1.83
I8 0 23 1.068E-4
D15 4 21 D10M
V2 22 21 1.63
I7 28 29 3.2E-6
E3 3 45 23 18 0.55
D8 37 0 DI8M
C4 26 0 2E-12
D11 34 7 D1M
E2 5 22 27 0 1
E4 20 5 27 0 1
I3 0 30 1E-3
D12 30 0 D12M
D9 40 0 DI8M
I9 0 37 1.068E-4
V3 27 30 -0.71465
R6 8 4 50E3
V4 12 0 0
L1 31 1 2E-9
I1 8 4 0.7E-3
Q34 33 28 29 Q34M
Q35 17 35 36 Q35M
Q36 16 2 38 Q35M
Q1 8 32 26 Q1M
R11 33 36 325
R12 33 38 325
Q2 8 14 39 Q2M
Q3 4 39 26 Q3M
Q4 4 14 32 Q4M
R18 15 24 10E3
I10 0 40 1.068E-4
D14 24 42 D14M
R7 31 1 1E3
R9 26 31 1
V6 35 45 4E-3
G3 2 45 40 37 0.0123E-12
R10 16 4 2E3
R13 17 4 2E3
G5 0 7 16 17 0.8E-3
G6 0 7 0 81 -1E-9
G7 0 7 0 48 -8.8E-7
D3 35 8 D3M
I6 35 4 4.1E-6
I11 2 4 4.0E-6
E5 15 0 8 4 1
R16 15 41 10E3
D13 41 25 D13M
D4 2 8 D3M
D5 4 35 D3M
D6 4 2 D3M
V7 8 29 0.8
V10 25 0 3.4
G1 0 48 8 0 1
R17 49 48 1
L2 0 49 1.2E-6
R20 0 49 1200
G8 8 4 41 0 0.5E-3
G9 0 57 4 0 1
G11 8 32 24 0 0.160E-3
G13 39 4 43 0 0.135E-3
V11 42 0 4.4
R19 15 43 10E3
D16 43 44 D16M
V12 44 0 3.3
D17 43 15 D17M
R21 74 57 1
L5 0 74 1.2E-6
R22 0 74 1200
G10 0 7 57 0 8.8E-7
R34 81 82 1
L6 82 0 1.5E-4
R35 82 0 10E3
R23 3 0 1E12
R24 27 0 1E12
G12 0 81 33 0 1
C8 45 0 1E-12
C9 2 0 1E-12
D18 1 8 D3M
D19 4 1 D3M
.MODEL D1M D IS=5.002E-16
.MODEL DV2M D IS=1E-16 KF=1E-14
.MODEL D10M D IS=1E-15
.MODEL DI8M D IS=1E-16 KF=1E-15
.MODEL D12M D IS=7E-9 M=0.333 N=1.67
+ RS=2.95E-01 TT=2.88E-09 VJ=0.75
.MODEL Q34M PNP
.MODEL Q35M PNP BF=40 KF=1.5E-14
.MODEL Q1M NPN BF=750 RC=0.75 RE=0.35
.MODEL Q2M NPN BF=75
.MODEL Q3M PNP BF=750 RC=4 RE=1.35
.MODEL Q4M PNP BF=75
.MODEL D14M D IS=1.0E-14 RS=2700
.MODEL D3M D IS=3E-14 RS=0.5
.MODEL D13M D IS=1.0E-14 RS=1
.MODEL D16M D IS=1.0E-14 RS=1000
.MODEL D17M D BV=3.3 IBV=1E-3 IS=1.0E-14
.ENDS
*//////////////////////////////////////////////////////////////////////
* (C) National Semiconductor, Corporation.
* Models developed and under copyright by:
* National Semiconductor, Corporation.  
*/////////////////////////////////////////////////////////////////////
* Legal Notice:  
* The model may be copied, and distributed without any modifications;
* however, reselling or licensing the material is illegal.
* We reserve the right to make changes to the model without prior notice. 
* Pspice Models are provided "AS IS, WITH NO WARRANTY OF ANY KIND" 
*////////////////////////////////////////////////////////////////////
* For more information, and our latest models,
* please visit the models section of our website at
*       http://www.national.com/models/
*////////////////////////////////////////////////////////////////////
* BEGIN MODEL LMH6715