*DEVICE=D1N5259B,D
* D1N5259B D model
.MODEL 1N5259B D
+ IS=389.27E-15
+ N=1.2744
+ RS=1.0000E-6
+ IKF=.1035
+ CJO=14.208E-12
+ M=1.1798
+ VJ=9.9900
+ ISR=29.315E-12
+ BV=38.982
+ IBV=.52416
+ TT=1.7312E-6
*$

*DEVICE=BAS216,D
* BAS216 D model
.MODEL BAS216 D
+ IS=6.0289E-9
+ N=2.1283
+ RS=1.0000E-3
+ IKF=37.638E-3
+ CJO=593.63E-15
+ M=.1
+ VJ=.68774
+ ISR=2.0646E-9
+ NR=4.9950
+ BV=113.60
+ IBV=10
+ TT=4.5000E-9
*$

*DEVICE=BAS221,D
* BAS221 D model
.MODEL BAS221 D
+ IS=10.010E-21
+ N=4.995
+ RS=1.0000E-3
+ IKF=1.8660E-186
+ CJO=598.00e-15
+ M=.3333
+ VJ=.75
+ ISR=1.3340E-9
+ NR=2.100
+ BV=330.09
+ IBV=2.7225E-3
+ TT=52.960E-9
*$

*DEVICE=BAS321,D
* BAS321 D model
.MODEL BAS321 D
+ IS=3.7106E-9
+ N=1.9403
+ RS=.41967
+ IKF=62.731E-3
+ CJO=412.54E-12
+ M=.1
+ VJ=2.2836
+ ISR=7.2305E-9
+ BV=319.86
+ IBV=5.1728E-6
+ TT=37.510E-9
*$

*DEVICE=BAS45A,D
* BAS45A D model
.MODEL BAS45A D
+ IS=7.0000E-9
+ N=2.2707
+ RS=1.0000E-3
+ IKF=22.121
+ CJO=2.9332E-12
+ M=.24677
+ VJ=.3905
+ ISR=10.010E-21
+ NR=4.9950
+ BV=225.36
+ IBV=10
+ TT=1.7500E-6
*$

*DEVICE=BAS56,D
* BAS56 D model
.MODEL BAS56 D
+ IS=10.825E-9
+ N=1.9301
+ RS=.49924
+ IKF=1.4135
+ CJO=994.44E-15
+ M=.10001
+ VJ=.69196
+ ISR=1.0704E-9
+ BV=113.15
+ IBV=15.676E-3
+ TT=5.7708E-9
*$

*DEVICE=BAV23,D
* BAV23 D model
.MODEL BAV23 D
+ IS=3.7106E-9
+ N=1.9403
+ RS=.41967
+ IKF=62.731E-3
+ CJO=794.74E-15
+ M=.10536
+ VJ=.3905
+ ISR=5.8659E-9
+ BV=319.86
+ IBV=5.1728E-6
+ TT=37.510E-9
*$

*DEVICE=BZV85C3V6,D
* BZV85C3V6 D model
.MODEL BZV85C3V6 D
+ IS=4.2450E-15
+ N=1.0330
+ RS=1.0000E-3
+ IKF=12.280E-3
+ CJO=245.10E-12
+ M=.218
+ VJ=.3905
+ ISR=9.2230E-6
+ NR=4.9950
+ BV=3.4110
+ IBV=52.160E-3
+ TT=5.0000E-9
*$

*DEVICE=BZV90C30,D
* BZV90C30 D model
.MODEL BZV90C30 D
+ IS=857.99E-18
+ N=.82675
+ RS=.31465
+ IKF=13.858E-6
+ CJO=21.774E-12
+ M=.33323
+ VJ=.68651
+ ISR=43.476E-12
+ NR=2.6052
+ BV=30.139
+ IBV=.43564
+ TT=144.27E-9
*$

*DEVICE=BZX284B6V2,D
* BZX284B6V2 D model
.MODEL BZX284B6V2 D
+ IS=2.6665E-18
+ N=.82284
+ RS=.51617
+ IKF=11.760E-3
+ CJO=167.78E-12
+ M=.37745
+ VJ=.86869
+ ISR=48.886E-9
+ BV=6.3329
+ IBV=.94329
+ TT=121.76E-9
*$

*DEVICE=BZX284C7V5,D
* BZX284C7V5 D model
.MODEL BZX284C7V5 D
+ IS=110.88E-18
+ N=.92657
+ RS=.85899
+ IKF=149.75
+ CJO=86.021E-12
+ M=.32808
+ VJ=.62493
+ ISR=1.1185E-9
+ BV=7.6329
+ IBV=1.0062
+ TT=2.7411E-6
*$

*DEVICE=BZX284C8V2,D
* BZX284C8V2 D model
.MODEL BZX284C8V2 D
+ IS=2.6665E-18
+ N=.82284
+ RS=.51617
+ IKF=11.760E-3
+ CJO=75.686E-12
+ M=.32952
+ VJ=.64386
+ ISR=146.71E-12
+ BV=8.3329
+ IBV=.94329
+ TT=2.7700E-6
*$

*DEVICE=BZX79C6V8,D
* BZX79C6V8 D model
.MODEL BZX79C6V8 D
+ IS=2.4710E-9
+ N=2.0880
+ RS=1.0000E-3
+ IKF=6.5100
+ CJO=95.650E-12
+ M=.3487
+ VJ=.7022
+ ISR=10.010E-21
+ BV=6.9480
+ IBV=.8623
+ TT=140E-9
*$

*DEVICE=BZX84C2V4,D

* BZX84C2V4 D model
.MODEL BZX84C2V4 D
+ IS=2.6665E-18
+ N=.82284
+ RS=.51617
+ IKF=11.760E-3
+ CJO=243.19E-12
+ M=.28964
+ VJ=.58074
+ ISR=4.7427E-6
+ BV=2.4673
+ IBV=74.447E-3
+ TT=29.431E-9
*$

*DEVICE=BZX84C51V,D

* BZX84C51V D model
.MODEL BZX84C51V D
+ IS=2.6665E-18
+ N=.82284
+ RS=.51617
+ IKF=11.760E-3
+ CJO=14.030E-12
+ M=.33875
+ VJ=.76575
+ ISR=60.382E-12
+ BV=51.120
+ IBV=.21741
+ TT=2.3083E-6
*$

*DEVICE=BZX84C56V,D

* BZX84C56V D model
.MODEL BZX84C56V D
+ IS=2.6665E-18
+ N=.82284
+ RS=.51617
+ IKF=11.760E-3
+ CJO=12.024E-12
+ M=.34443
+ VJ=.60675
+ ISR=53.794E-12
+ BV=56.116
+ IBV=.18612
+ TT=2.3083E-6
*$

*DEVICE=BZX84C62V,D

* BZX84C62V D model
.MODEL BZX84C62V D
+ IS=110.88E-18
+ N=.92657
+ RS=.85899
+ IKF=149.75
+ CJO=11.525E-12
+ M=.35851
+ VJ=.65914
+ ISR=51.091E-12
+ BV=62.112
+ IBV=.16341
+ TT=2.2362E-6
*$

*DEVICE=BZX84C68V,D

* BZX84C68V D model
.MODEL BZX84C68V D
+ IS=2.6665E-18
+ N=.82284
+ RS=.51617
+ IKF=11.760E-3
+ CJO=11.121E-12
+ M=.34915
+ VJ=.60561
+ ISR=53.010E-12
+ BV=68.110
+ IBV=.14452
+ TT=2.6257E-6
*$

*DEVICE=PLVA2656A,D
* PLVA2656AB D model
.MODEL PLVA2656A D
+ IS=1.2302E-15
+ N=.99169
+ RS=.4793
+ IKF=49.525E-3
+ CJO=125.26E-12
+ M=.33643
+ VJ=.68657
+ ISR=32.826E-9
+ BV=5.7651
+ IBV=3.2718
+ TT=104.45E-9
*$

*DEVICE=PLVA650A,D
* PLVA650A D model
.MODEL PLVA650A D
+ IS=535.74E-18
+ N=1.0029
+ RS=.29276
+ IKF=2.5050
+ CJO=119.42E-12
+ M=.32565
+ VJ=.62169
+ ISR=216.91E-9
+ NR=4.9950
+ BV=5.1893
+ IBV=.21213
+ TT=132.15E-9
*$

*DEVICE=PMBD6050,D
* PMBD6050 D model
.MODEL PMBD6050 D
+ IS=6.0289E-9
+ N=2.1283
+ RS=1.0000E-3
+ IKF=37.638E-3
+ CJO=593.63E-15
+ M=.1
+ VJ=.68774
+ ISR=1.6725E-9
+ NR=4.9950
+ BV=139.42
+ IBV=34.486E-3
+ TT=4.5000E-9
*$

*DEVICE=PMBD7000,D
* PMBD7000 D model
.MODEL PMBD7000 D
+ IS=6.0289E-9
+ N=2.1283
+ RS=1.0000E-3
+ IKF=37.638E-3
+ CJO=593.63E-15
+ M=.1
+ VJ=.68774
+ ISR=2.0646E-9
+ NR=4.9950
+ BV=113.60
+ IBV=10
+ TT=5.7708E-9
*$

*
.SUBCKT 1N4735A 1 2 
*
* The Resistor R1 does not reflect 
* a physical device. Instead it
* improves modeling in the reverse 
* mode of operation.
*
R1 1 2 3E+9 
D1 1 2 1N4735A
*
.MODEL 1N4735A D 
+ IS = 1.803E-14 
+ N = 1.167 
+ BV = 6.2 
+ IBV = 0.041 
+ RS = 0.3264 
+ CJO = 6.85E-11 
+ VJ = 0.6947 
+ M = 0.3439 
+ FC = 0.5 
.ENDS
*
.SUBCKT 1PS181 1 2 3
*
* The Resistors do not reflect
* physical devices.  Instead they 
* improve modeling in the reverse
* mode of operation.
*
R1 3 1 2.3E+9
D1 3 1 1PS181
R2 3 2 2.3E+9
D2 3 2 1PS181
*
.MODEL 1PS181 D
+ IS = 1.705E-9
+ N = 1.71
+ BV = 87
+ IBV = 0.0003
+ RS = 1.022
+ CJO = 1.798E-12
+ VJ = 1.032
+ M = 0.2987
+ FC = 0.5
+ TT = 3.606E-9 
+ EG = 1.1
+ XTI = 3
.ENDS
*
*
.SUBCKT 1PS300 1 2 3
*
* The Resistors do not reflect
* physical devices.  Instead they 
* improve modeling in the reverse
* mode of operation.
*
R1 3 1 2.3E+9
D1 3 1 1PS300
R2 3 2 2.3E+9
D2 3 2 1PS300
*
.MODEL 1PS300 D
+ IS = 1.705E-9
+ N = 1.71
+ BV = 87
+ IBV = 0.0003
+ RS = 1.022
+ CJO = 1.798E-12
+ VJ = 1.032
+ M = 0.2987
+ FC = 0.5
+ TT = 3.606E-9 
+ EG = 1.1
+ XTI = 3
.ENDS
*
*
.MODEL BAS116H D
+ IS=805.84E-18
+ N=1.0246
+ RS=50.000E-3
+ IKF=362.16E-6
+ CJO=1.9002E-12
+ M=.35193
+ VJ=1.2722
+ ISR=298.95E-15
+ BV=98
+ IBV=1.42E-3
+ TT=1.0230E-6
*
. *
.MODEL BAS16H D(
+ IS=6.0289E-9
+ N=2.1283
+ RS=1.0000E-3
+ IKF=37.638E-3
+ CJO=593.63E-15
+ M=.1
+ VJ=.68774
+ ISR=2.0646e-9
+ NR=4.9950
+ BV=113.60
+ IBV=10
+ TT=4.5000E-9)
*
.MODEL BAS16L D
+ IS = 6.0289E-9
+ N = 2.1283
+ RS = 1.0000E-3
+ IKF = 37.638E-3
+ CJO = 5.641E-013
+ M = 0.05188 
+ VJ = 0.01571
+ ISR = 2.0646e-9
+ NR = 4.9950
+ BV = 113.60
+ IBV = 10
+ TT = 4.5000E-9
.SUBCKT BAS16VV 1 2 3 4 5 6
*
D1 1 6 BAS16VV
D2 2 5 BAS16VV
D3 3 4 BAS16VV
*
.MODEL BAS16VV D
+ IS=6.0289E-9
+ N=2.1283
+ RS=1.0000E-3
+ IKF=37.638E-3
+ CJO=593.63E-15
+ M=.1
+ VJ=.68774
+ ISR=2.0646e-9
+ NR=4.9950
+ BV=113.60
+ IBV=10
+ TT=4.5000E-9
.ENDS
*
.SUBCKT BAS16VY 1 2 3 4 5 6
*
D1 1 6 BAS16VY
D2 2 5 BAS16VY
D3 3 4 BAS16VY
*
.MODEL BAS16VY D
+ IS=6.0289E-9
+ N=2.1283
+ RS=1.0000E-3
+ IKF=37.638E-3
+ CJO=593.63E-15
+ M=.1
+ VJ=.68774
+ ISR=2.0646e-9
+ NR=4.9950
+ BV=113.60
+ IBV=10
+ TT=4.5000E-9
.ENDS
*
*
.SUBCKT BAS21H 1 2
*
* The Resistor R1 does not reflect 
* a physical device. Instead it
* improves modeling in the reverse 
* mode of operation.
*
R1 1 2 1.622E+10 
D1 1 2 BAS21H 
*
.MODEL BAS21H D 
+ IS = 3.648E-9 
+ N = 1.909 
+ BV = 260 
+ IBV = 2E-7 
+ RS = 0.7535 
+ CJO = 6.99E-13 
+ VJ = 0.2028 
+ M = 0.1151 
+ FC = 0.5 
+ TT = 3.462E-8 
.ENDS
*
*
.SUBCKT BAS21VD 1 2 3 4 5 6
*
* The Resistors R1-R3 do not
* reflect physical devices.
* Instead they improve modeling
* in the reverse mode of
* operation.
*
R1 6 1 1.622E+10
D1 6 1 BAS21VD
R2 5 2 1.622E+10
D2 5 2 BAS21VD
R3 4 3 1.622E+10
D3 4 3 BAS21VD
*
.MODEL BAS21VD D
+ IS = 3.648E-9
+ N = 1.909
+ BV = 260
+ IBV = 2E-7
+ RS = 0.7535
+ CJO = 5.01E-13
+ VJ = 0.4515
+ M = 0.0571
+ FC = 0.5
+ TT = 2.054E-8
.ENDS
*
*
.MODEL BAS416 D
+ IS=805.84E-18
+ N=1.0246
+ RS=50.000E-3
+ IKF=362.16E-6
+ CJO=1.9002E-12
+ M=.35193
+ VJ=1.2722
+ ISR=298.95E-15
+ BV=98
+ IBV=1.42E-3
+ TT=1.0230E-6
*
*DEVICE=BAS516,D
* BAS516 D model
.MODEL BAS516 D
+ IS=2.9891E-9
+ N=1.9303
+ RS=0.78115
+ IKF=0.085491E-3
+ CJO=383.41E-15
+ M=.1
+ VJ=9.99
+ ISR=6.8038E-9
+ NR=4.9950
+ BV=130.38
+ IBV=10
+ TT=3.0297E-9
*$
*
.SUBCKT BAS521 1 2
*
* The Resistor R1 does not reflect 
* a physical device. Instead it
* improves modeling in the reverse 
* mode of operation.
*
R1 1 2 1.2E+10
D1 1 2 BAS521
*
.MODEL BAS521 D
+ IS = 7.219E-9
+ N = 2
+ BV = 310
+ IBV = 0.0001
+ RS = 0.63
+ CJO = 4.074E-13
+ VJ = 0.6538
+ M = 0.05409
+ FC = 0.5
+ TT = 2.1987E-8
+ EG = 0.69
+ XTI = 2
.ENDS
*
.SUBCKT BAS716 1 2
D1 1 2 BAS716
.MODEL BAS716 D
+ IS = 3.519E-15
+ N = 1.093
+ BV = 110
+ IBV = 3E-9
+ RS = 0.7423
+ CJO = 1.817E-12
+ VJ = 0.6508
+ M = 0.3689
+ FC = 0.5
+ TT = 8.656E-7
.ENDS
*
.SUBCKT BAV23S 1 2 3 
*
* The resistor does not reflect a
* physical devices.  Instead it improves
* modeling in the reverse mode of
* operation.
*
R1 1 3 1.622E+10 
D1 1 3 BAV23S
R2 3 2 1.622E+10 
D2 3 2 BAV23S
*
.MODEL BAV23S D 
+ IS = 3.648E-9 
+ N = 1.909 
+ BV = 260 
+ IBV = 2E-7 
+ RS = 0.7535 
+ CJO = 7.501E-13 
+ VJ = 0.1995 
+ M = 0.115 
+ FC = 0.5 
+ TT = 3.462E-8 
.ENDS
*DEVICE=BAV99S,D

* BAV99S D model
.MODEL BAV99S D
+ IS=7.4960E-9
+ N=2.0077
+ RS=.80464
+ IKF=.1058
+ CJO=515.09E-15
+ M=.115
+ VJ=.6389
+ ISR=1.4182E-9
+ NR=4.9950
+ BV=90.375
+ IBV=10
+ TT=2.1640E-9
*$
.SUBCKT BAW101S 1 3 4 6
*
* The Resistors do not reflect
* physical devices.  Instead they 
* improve modeling in the reverse
* mode of operation.
*
R1 1 6 1.2E+10 
D1 1 6 BAW101S
R2 4 3 1.2E+10 
D2 4 3 BAW101S
*
.MODEL BAW101S D 
+ IS = 7.219E-9 
+ N = 2 
+ BV = 310 
+ IBV = 0.0001 
+ RS = 0.63 
+ CJO = 4.584E-13 
+ VJ = 0.7483 
+ M = 0.06257 
+ FC = 0.5
+ TT = 2.1987E-8
.ENDS
*
.SUBCKT BAW56S 1 2 3 4 5 6
*
* The Resistors do not reflect
* physical devices.  Instead they 
* improve modeling in the reverse
* mode of operation.
*
R1 6 1 2.3E+9
D1 6 1 BAW56S
R2 6 2 2.3E+9
D2 6 2 BAW56S
R3 3 4 2.3E+9
D3 3 4 BAW56S
R4 3 5 2.3E+9
D4 3 5 BAW56S

*
.MODEL BAW56S D
+ IS = 1.705E-9
+ N = 1.71
+ BV = 87
+ IBV = 0.0003
+ RS = 1.022
+ CJO = 1.798E-12
+ VJ = 1.032
+ M = 0.2987
+ FC = 0.5
+ TT = 3.606E-9 
+ EG = 1.1
+ XTI = 3
.ENDS
*
*
.SUBCKT BAW56T 1 2 3
*
* The Resistors do not reflect
* physical devices.  Instead they 
* improve modeling in the reverse
* mode of operation.
*
R1 3 1 2.3E+9
D1 3 1 BAW56T
R2 3 2 2.3E+9
D2 3 2 BAW56T
*
.MODEL BAW56T D
+ IS = 1.705E-9
+ N = 1.71
+ BV = 87
+ IBV = 0.0003
+ RS = 1.022
+ CJO = 1.798E-12
+ VJ = 1.032
+ M = 0.2987
+ FC = 0.5
+ TT = 3.606E-9 
+ EG = 1.1
+ XTI = 3
.ENDS
*
*
.SUBCKT BAW56W 1 2 3
*
* The Resistors do not reflect
* physical devices.  Instead they 
* improve modeling in the reverse
* mode of operation.
*
R1 3 1 2.3E+9
D1 3 1 BAW56W
R2 3 2 2.3E+9
D2 3 2 BAW56W
*
.MODEL BAW56W D
+ IS = 1.705E-9
+ N = 1.71
+ BV = 87
+ IBV = 0.0003
+ RS = 1.022
+ CJO = 1.798E-12
+ VJ = 1.032
+ M = 0.2987
+ FC = 0.5
+ TT = 3.606E-9 
+ EG = 1.1
+ XTI = 3
.ENDS
*
*
.SUBCKT BZA418A 1 2 3 4 5 6
*
* The Resistors R1-R4 do not 
* reflect physical devices. 
* Instead they improve modeling
* in the reverse mode of 
* operation.
*
D1 2 1 BZA418A
R1 2 1 6.5E+08
D2 2 3 BZA418A
R2 2 3 6.5E+08
D3 5 4 BZA418A
R3 5 4 6.5E+08
D4 5 6 BZA418A
R4 5 6 6.5E+08
*
* The resistor R5 is only for 
* pinning of the device
*
R5 2 5 0
*
.MODEL BZA418A D
+ IS = 2.26E-14
+ N = 1.135
+ BV = 17.9
+ IBV = 1E-09
+ RS = 0.2056
+ CJO = 4.079E-11
+ VJ = 0.5582
+ M = 0.381
+ FC = 0.5
+ TT = 7.502E-07
.ENDS
*
*DEVICE=BZA820A,D

* BZA820A D model
.MODEL BZA820A D
+ IS=323.81E-18
+ N=.97963
+ RS=.24264
+ IKF=6.9002
+ CJO=37.279E-12
+ M=.32559
+ VJ=.3905
+ ISR=2.7811E-9
+ NR=2.4186
+ BV=19.919
+ IBV=6.0752
+ TT=656.43E-9
*DEVICE=BZA856A,D

* BZA856A D model
.MODEL BZA856A D
+ IS=323.83E-18
+ N=.97963
+ RS=.24251
+ IKF=6.4502
+ CJO=156.61E-12
+ M=.28517
+ VJ=.98457
+ ISR=9.2948E-9
+ NR=2.4186
+ BV=5.7918
+ IBV=.18506
+ TT=116.14E-9
.SUBCKT BZA856AVL 1 2 3 4 5
*
D1 2 1 BZA856AVL
D2 2 3 BZA856AVL
D3 2 4 BZA856AVL
D4 2 5 BZA856AVL
*
.MODEL BZA856AVL D
+ IS = 3.644E-17 
+ N = 0.9717 
+ BV = 5.6 
+ IBV = 0.001 
+ RS = 0.5003 
+ CJO = 2.136E-11 
+ VJ = 0.7025 
+ M = 0.3242 
+ FC = 0.5 
.ENDS
*DEVICE=BZA862A,D

* BZA862A D model
.MODEL BZA862A D
+ IS=323.81E-18
+ N=.97963
+ RS=.24264
+ IKF=6.9002
+ CJO=140.64E-12
+ M=.29103
+ VJ=.92059
+ ISR=41.933E-9
+ NR=2.4186
+ BV=6.3692
+ IBV=.86917
+ TT=123.35E-9
.SUBCKT BZA862AVL 1 2 3 4 5
*
D1 2 1 BZA862AVL
D2 2 3 BZA862AVL
D3 2 4 BZA862AVL
D4 2 5 BZA862AVL
*
.MODEL BZA862AVL D
+ IS = 3.644E-17 
+ N = 0.9717 
+ BV = 6.2 
+ IBV = 0.001 
+ RS = 0.5003 
+ CJO = 1.815E-11 
+ VJ = 0.7121 
+ M = 0.3251 
+ FC = 0.5 
.ENDS
*DEVICE=BZA868A,D

* BZA868A D model
.MODEL BZA868A D
+ IS=323.81E-18
+ N=.97963
+ RS=.24264
+ IKF=6.9002
+ CJO=125.11E-12
+ M=.34068
+ VJ=1.2066
+ ISR=894.24E-12
+ NR=2.4186
+ BV=7.0126
+ IBV=2.4043
+ TT=115.42E-9
.SUBCKT BZA868AVL 1 2 3 4 5
*
D1 2 1 BZA868AVL
D2 2 3 BZA868AVL
D3 2 4 BZA868AVL
D4 2 5 BZA868AVL
*
.MODEL BZA868AVL D 
+ IS = 3.644E-17 
+ N = 0.9717 
+ BV = 6.8 
+ IBV = 0.001 
+ RS = 0.5003 
+ CJO = 1.641E-11 
+ VJ = 0.8979 
+ M = 0.33 
+ FC = 0.5 
.ENDS
*DEVICE=BZA956A,D

* BZA956A D model
.MODEL BZA956A D
+ IS=274.79E-18
+ N=.99151
+ RS=.33553
+ IKF=8.8795
+ CJO=107.97E-12
+ M=.32308
+ VJ=.68909
+ ISR=1.1924E-6
+ NR=4.9950
+ BV=5.7434
+ IBV=.25951
+ TT=865.62E-9
*$
.SUBCKT BZA956AVL 1 2 3 4 5
*
D1 2 1 BZA956AVL
D2 2 3 BZA956AVL
D3 2 4 BZA956AVL
D4 2 5 BZA956AVL
*
.MODEL BZA956AVL D
+ IS = 3.644E-17 
+ N = 0.9717 
+ BV = 5.6 
+ IBV = 0.001 
+ RS = 0.5003 
+ CJO = 2.136E-11 
+ VJ = 0.7025 
+ M = 0.3242 
+ FC = 0.5 
.ENDS
*DEVICE=BZA962A,D

* BZA962A D model
.MODEL BZA962A D
+ IS=322.57E-18
+ N=.9961
+ RS=.31568
+ IKF=7.9489
+ CJO=89.986E-12
+ M=.33327
+ VJ=.75415
+ ISR=55.253E-9
+ NR=3.2011
+ BV=6.4066
+ IBV=2.9783
+ TT=865.62E-9
*$
.SUBCKT BZA962AVL 1 2 3 4 5
*
D1 2 1 BZA962AVL
D2 2 3 BZA962AVL
D3 2 4 BZA962AVL
D4 2 5 BZA962AVL
*
.MODEL BZA962AVL D
+ IS = 3.644E-17 
+ N = 0.9717 
+ BV = 6.2 
+ IBV = 0.001 
+ RS = 0.5003 
+ CJO = 1.815E-11 
+ VJ = 0.7121 
+ M = 0.3251 
+ FC = 0.5 
.ENDS
*DEVICE=BZA968A,D

* BZA968A D model
.MODEL BZA968A D
+ IS=329.56E-18
+ N=.99805
+ RS=.3112
+ IKF=6.1249
+ CJO=77.958E-12
+ M=.34229
+ VJ=.77441
+ ISR=8.8151E-9
+ NR=4.9950
+ BV=7.0369
+ IBV=9.6192
+ TT=865.62E-9
*$
.SUBCKT BZA968AVL 1 2 3 4 5
*
D1 2 1 BZA968AVL
D2 2 3 BZA968AVL
D3 2 4 BZA968AVL
D4 2 5 BZA968AVL
*
.MODEL BZA968AVL D 
+ IS = 3.644E-17 
+ N = 0.9717 
+ BV = 6.8 
+ IBV = 0.001 
+ RS = 0.5003 
+ CJO = 1.641E-11 
+ VJ = 0.8979 
+ M = 0.33 
+ FC = 0.5 
.ENDS
*DEVICE= BZV85-C33,D

.MODEL BZV85-C33 D
+ IS=110.88E-18
+ N=.92657
+ RS=.85899
+ IKF=149.75
+ CJO=16.677E-12
+ M=.34957
+ VJ=.66723
+ ISR=100.00E-12
+ BV=33.134
+ IBV=.37878
+ TT=2.2362E-6
*
.SUBCKT BZX384-B10 1 2
D1 2 1 BZX384-B10
.MODEL BZX384-B10 D
+ IS = 1.13E-14
+ N = 1.103
+ BV = 10
+ IBV = 0.005
+ RS = 0.4798
+ CJO = 6.004E-11
+ VJ = 0.6305
+ M = 0.3302
+ FC = 0.5
.ENDS
.SUBCKT BZX384-B11 1 2
D1 2 1 BZX384-B11
.MODEL BZX384-B11 D
+ IS = 1.13E-14
+ N = 1.103
+ BV = 11
+ IBV = 0.005
+ RS = 0.4798
+ CJO = 5.404E-11
+ VJ = 0.5891
+ M = 0.3295
+ FC = 0.5
.ENDS
.SUBCKT BZX384-B12 1 2
D1 2 1 BZX384-B12
.MODEL BZX384-B12 D
+ IS = 1.13E-14
+ N = 1.103
+ BV = 12
+ IBV = 0.005
+ RS = 0.4798
+ CJO = 4.928E-11
+ VJ = 0.575
+ M = 0.3292
+ FC = 0.5
.ENDS
.SUBCKT BZX384-B13 1 2
D1 2 1 BZX384-B13
.MODEL BZX384-B13 D
+ IS = 1.13E-14
+ N = 1.103
+ BV = 13
+ IBV = 0.005
+ RS = 0.4798
+ CJO = 4.377E-11
+ VJ = 0.5656
+ M = 0.3289
+ FC = 0.5
.ENDS
.SUBCKT BZX384-B15 1 2
D1 2 1 BZX384-B15
.MODEL BZX384-B15 D
+ IS = 1.13E-14
+ N = 1.103
+ BV = 15
+ IBV = 0.005
+ RS = 0.4798
+ CJO = 4.023E-11
+ VJ = 0.6144
+ M = 0.3297
+ FC = 0.5
.ENDS
.SUBCKT BZX384-B16 1 2
D1 2 1 BZX384-B16
.MODEL BZX384-B16 D
+ IS = 1.13E-14
+ N = 1.103
+ BV = 16
+ IBV = 0.005
+ RS = 0.4798
+ CJO = 3.509E-11
+ VJ = 0.6502
+ M = 0.3378
+ FC = 0.5
.ENDS
.SUBCKT BZX384-B18 1 2
D1 2 1 BZX384-B18
.MODEL BZX384-B18 D
+ IS = 1.13E-14
+ N = 1.103
+ BV = 18
+ IBV = 0.005
+ RS = 0.4798
+ CJO = 3.17E-11
+ VJ = 0.6421
+ M = 0.3327
+ FC = 0.5
.ENDS
.SUBCKT BZX384-B20 1 2
D1 2 1 BZX384-B20
.MODEL BZX384-B20 D
+ IS = 1.13E-14
+ N = 1.103
+ BV = 20
+ IBV = 0.005
+ RS = 0.4798
+ CJO = 2.915E-11
+ VJ = 0.635
+ M = 0.3362
+ FC = 0.5
.ENDS
.SUBCKT BZX384-B22 1 2
D1 2 1 BZX384-B22
.MODEL BZX384-B22 D
+ IS = 1.13E-14
+ N = 1.103
+ BV = 22
+ IBV = 0.005
+ RS = 0.4798
+ CJO = 2.701E-11
+ VJ = 0.7087
+ M = 0.3557
+ FC = 0.5
.ENDS
.SUBCKT BZX384-B24 1 2
D1 2 1 BZX384-B24
.MODEL BZX384-B24 D
+ IS = 1.13E-14
+ N = 1.103
+ BV = 24
+ IBV = 0.002
+ RS = 0.4798
+ CJO = 2.48E-11
+ VJ = 0.7142
+ M = 0.3513
+ FC = 0.5
.ENDS
.SUBCKT BZX384-B27 1 2
D1 2 1 BZX384-B27
.MODEL BZX384-B27 D
+ IS = 1.13E-14
+ N = 1.103
+ BV = 27
+ IBV = 0.002
+ RS = 0.4798
+ CJO = 2.233E-11
+ VJ = 0.7107
+ M = 0.3546
+ FC = 0.5
.ENDS
.SUBCKT BZX384-B2V4 1 2
D1 2 1 BZX384-B2V4
.MODEL BZX384-B2V4 D
+ IS = 1.033E-15
+ N = 1.001
+ BV = 2.4
+ IBV = 0.005
+ RS = 0.387
+ CJO = 3.615E-10
+ VJ = 0.5762
+ M = 0.2715
+ FC = 0.5
.ENDS
.SUBCKT BZX384-B2V7 1 2
D1 2 1 BZX384-B2V7
.MODEL BZX384-B2V7 D
+ IS = 1.033E-15
+ N = 1.001
+ BV = 2.7
+ IBV = 0.005
+ RS = 0.387
+ CJO = 3.518E-10
+ VJ = 0.6816
+ M = 0.3174
+ FC = 0.5
.ENDS
.SUBCKT BZX384-B30 1 2
D1 2 1 BZX384-B30
.MODEL BZX384-B30 D
+ IS = 1.13E-14
+ N = 1.103
+ BV = 30
+ IBV = 0.002
+ RS = 0.4798
+ CJO = 2.17E-011
+ VJ = 0.6718
+ M = 0.3465
+ FC = 0.5
.ENDS
.SUBCKT BZX384-B33 1 2
D1 2 1 BZX384-B33
.MODEL BZX384-B33 D
+ IS = 1.13E-14
+ N = 1.103
+ BV = 33
+ IBV = 0.002
+ RS = 0.4798
+ CJO = 2.019E-11
+ VJ = 0.7645
+ M = 0.3782
+ FC = 0.5
.ENDS
.SUBCKT BZX384-B36 1 2
D1 2 1 BZX384-B36
.MODEL BZX384-B36 D
+ IS = 1.13E-14
+ N = 1.103
+ BV = 36
+ IBV = 0.002
+ RS = 0.4798
+ CJO = 1.866E-11
+ VJ = 0.7591
+ M = 0.3771
+ FC = 0.5
.ENDS
.SUBCKT BZX384-B39 1 2
D1 2 1 BZX384-B39
.MODEL BZX384-B39 D
+ IS = 1.13E-14
+ N = 1.103
+ BV = 39
+ IBV = 0.002
+ RS = 0.4798
+ CJO = 1.772E-11
+ VJ = 0.7471
+ M = 0.3751
+ FC = 0.5
.ENDS
.SUBCKT BZX384-B3V0 1 2
D1 2 1 BZX384-B3V0
.MODEL BZX384-B3V0 D
+ IS = 1.033E-15
+ N = 1.001
+ BV = 3
+ IBV = 0.005
+ RS = 0.387
+ CJO = 3.346E-10
+ VJ = 0.6722
+ M = 0.3162
+ FC = 0.5
.ENDS
.SUBCKT BZX384-B3V3 1 2
D1 2 1 BZX384-B3V3
.MODEL BZX384-B3V3 D
+ IS = 1.033E-15
+ N = 1.001
+ BV = 3.3
+ IBV = 0.005
+ RS = 0.387
+ CJO = 3.162E-10
+ VJ = 0.6687
+ M = 0.3164
+ FC = 0.5
.ENDS
.SUBCKT BZX384-B3V6 1 2
D1 2 1 BZX384-B3V6
.MODEL BZX384-B3V6 D
+ IS = 1.033E-15
+ N = 1.001
+ BV = 3.6
+ IBV = 0.005
+ RS = 0.387
+ CJO = 3.062E-10
+ VJ = 0.6643
+ M = 0.3168
+ FC = 0.5
.ENDS
.SUBCKT BZX384-B3V9 1 2
D1 2 1 BZX384-B3V9
.MODEL BZX384-B3V9 D
+ IS = 1.033E-15
+ N = 1.001
+ BV = 3.9
+ IBV = 0.005
+ RS = 0.387
+ CJO = 2.82E-10
+ VJ = 0.6743
+ M = 0.3219
+ FC = 0.5
.ENDS
.SUBCKT BZX384-B43 1 2
D1 2 1 BZX384-B43
.MODEL BZX384-B43 D
+ IS = 1.13E-14
+ N = 1.103
+ BV = 43
+ IBV = 0.002
+ RS = 0.4798
+ CJO = 1.638E-11
+ VJ = 0.7517
+ M = 0.3762
+ FC = 0.5
.ENDS
.SUBCKT BZX384-B47 1 2
D1 2 1 BZX384-B47
.MODEL BZX384-B47 D
+ IS = 1.13E-14
+ N = 1.103
+ BV = 47
+ IBV = 0.002
+ RS = 0.4798
+ CJO = 1.707E-11
+ VJ = 0.888
+ M = 0.4248
+ FC = 0.5
.ENDS
.SUBCKT BZX384-B4V3 1 2
D1 2 1 BZX384-B4V3
.MODEL BZX384-B4V3 D
+ IS = 1.033E-15
+ N = 1.001
+ BV = 4.3
+ IBV = 0.005
+ RS = 0.387
+ CJO = 2.715E-10
+ VJ = 0.7721
+ M = 0.3557
+ FC = 0.5
.ENDS
.SUBCKT BZX384-B4V7 1 2
D1 2 1 BZX384-B4V7
.MODEL BZX384-B4V7 D
+ IS = 1.033E-15
+ N = 1.001
+ BV = 4.7
+ IBV = 0.005
+ RS = 0.387
+ CJO = 2.589E-10
+ VJ = 0.8029
+ M = 0.3636
+ FC = 0.5
.ENDS
.SUBCKT BZX384-B51 1 2
D1 2 1 BZX384-B51
.MODEL BZX384-B51 D
+ IS = 1.13E-14
+ N = 1.103
+ BV = 51
+ IBV = 0.002
+ RS = 0.4798
+ CJO = 1.602E-11
+ VJ = 0.8454
+ M = 0.4154
+ FC = 0.5
.ENDS
.SUBCKT BZX384-B56 1 2
D1 2 1 BZX384-B56
.MODEL BZX384-B56 D
+ IS = 1.13E-14
+ N = 1.103
+ BV = 56
+ IBV = 0.002
+ RS = 0.4798
+ CJO = 1.508E-11
+ VJ = 0.8856
+ M = 0.4177
+ FC = 0.5
.ENDS
.SUBCKT BZX384-B5V1 1 2
D1 2 1 BZX384-B5V1
.MODEL BZX384-B5V1 D
+ IS = 1.033E-15
+ N = 1.001
+ BV = 5.1
+ IBV = 0.005
+ RS = 0.387
+ CJO = 2.402E-10
+ VJ = 0.7934
+ M = 0.3578
+ FC = 0.5
.ENDS
.SUBCKT BZX384-B5V6 1 2
D1 2 1 BZX384-B5V6
.MODEL BZX384-B5V6 D
+ IS = 1.033E-15
+ N = 1.001
+ BV = 5.6
+ IBV = 0.005
+ RS = 0.387
+ CJO = 1.961E-10
+ VJ = 0.9187
+ M = 0.423
+ FC = 0.5
.ENDS
.SUBCKT BZX384-B62 1 2
D1 2 1 BZX384-B62
.MODEL BZX384-B62 D
+ IS = 1.13E-14
+ N = 1.103
+ BV = 62
+ IBV = 0.002
+ RS = 0.4798
+ CJO = 1.403E-11
+ VJ = 0.8053
+ M = 0.4033
+ FC = 0.5
.ENDS
.SUBCKT BZX384-B68 1 2
D1 2 1 BZX384-B68
.MODEL BZX384-B68 D
+ IS = 1.13E-14
+ N = 1.103
+ BV = 68
+ IBV = 0.002
+ RS = 0.4798
+ CJO = 1.321E-11
+ VJ = 0.7877
+ M = 0.4021
+ FC = 0.5
.ENDS
.SUBCKT BZX384-B6V2 1 2
D1 2 1 BZX384-B6V2
.MODEL BZX384-B6V2 D
+ IS = 1.033E-15
+ N = 1.001
+ BV = 6.2
+ IBV = 0.005
+ RS = 0.387
+ CJO = 1.732E-10
+ VJ = 0.9334
+ M = 0.4321
+ FC = 0.5
.ENDS
.SUBCKT BZX384-B6V8 1 2
D1 2 1 BZX384-B6V8
.MODEL BZX384-B6V8 D
+ IS = 1.033E-15
+ N = 1.001
+ BV = 6.8
+ IBV = 0.005
+ RS = 0.387
+ CJO = 1.519E-10
+ VJ = 0.9041
+ M = 0.4027
+ FC = 0.5
.ENDS
.SUBCKT BZX384-B75 1 2
D1 2 1 BZX384-B75
.MODEL BZX384-B75 D
+ IS = 1.13E-14
+ N = 1.103
+ BV = 75
+ IBV = 0.002
+ RS = 0.4798
+ CJO = 1.246E-11
+ VJ = 0.822
+ M = 0.4052
+ FC = 0.5
.ENDS
.SUBCKT BZX384-B7V5 1 2
D1 2 1 BZX384-B7V5
.MODEL BZX384-B7V5 D
+ IS = 1.13E-14
+ N = 1.103
+ BV = 7.5
+ IBV = 0.005
+ RS = 0.4798
+ CJO = 8.767E-11
+ VJ = 0.5829
+ M = 0.3299
+ FC = 0.5
.ENDS
.SUBCKT BZX384-B8V2 1 2
D1 2 1 BZX384-B8V2
.MODEL BZX384-B8V2 D
+ IS = 1.13E-14
+ N = 1.103
+ BV = 8.2
+ IBV = 0.005
+ RS = 0.4798
+ CJO = 7.562E-11
+ VJ = 0.5765
+ M = 0.3298
+ FC = 0.5
.ENDS
.SUBCKT BZX384-B9V1 1 2
D1 2 1 BZX384-B9V1
.MODEL BZX384-B9V1 D
+ IS = 1.13E-14
+ N = 1.103
+ BV = 9.1
+ IBV = 0.005
+ RS = 0.4798
+ CJO = 7.316E-11
+ VJ = 0.5667
+ M = 0.3295
+ FC = 0.5
.ENDS
.MODEL BZX585-B10 D
+ IS = 1.13E-14
+ N = 1.103
+ BV = 10
+ IBV = 0.005
+ RS = 0.4798
+ CJO = 6.004E-11
+ VJ = 0.6305
+ M = 0.3302
+ FC = 0.5
.MODEL BZX585-B11 D
+ IS = 1.13E-14
+ N = 1.103
+ BV = 11
+ IBV = 0.005
+ RS = 0.4798
+ CJO = 5.404E-11
+ VJ = 0.5891
+ M = 0.3295
+ FC = 0.5
.MODEL BZX585-B12 D
+ IS = 1.13E-14
+ N = 1.103
+ BV = 12
+ IBV = 0.005
+ RS = 0.4798
+ CJO = 4.928E-11
+ VJ = 0.575
+ M = 0.3292
+ FC = 0.5
.MODEL BZX585-B13 D
+ IS = 1.13E-14
+ N = 1.103
+ BV = 13
+ IBV = 0.005
+ RS = 0.4798
+ CJO = 4.377E-11
+ VJ = 0.5656
+ M = 0.3289
+ FC = 0.5
.MODEL BZX585-B15 D
+ IS = 1.13E-14
+ N = 1.103
+ BV = 15
+ IBV = 0.005
+ RS = 0.4798
+ CJO = 4.023E-11
+ VJ = 0.6144
+ M = 0.3297
+ FC = 0.5
.MODEL BZX585-B16 D
+ IS = 1.13E-14
+ N = 1.103
+ BV = 16
+ IBV = 0.005
+ RS = 0.4798
+ CJO = 3.509E-11
+ VJ = 0.6502
+ M = 0.3378
+ FC = 0.5
.MODEL BZX585-B18 D
+ IS = 1.13E-14
+ N = 1.103
+ BV = 18
+ IBV = 0.005
+ RS = 0.4798
+ CJO = 3.17E-11
+ VJ = 0.6421
+ M = 0.3327
+ FC = 0.5
.MODEL BZX585-B20 D
+ IS = 1.13E-14
+ N = 1.103
+ BV = 20
+ IBV = 0.005
+ RS = 0.4798
+ CJO = 2.915E-11
+ VJ = 0.635
+ M = 0.3362
+ FC = 0.5
.MODEL BZX585-B22 D
+ IS = 1.13E-14
+ N = 1.103
+ BV = 22
+ IBV = 0.005
+ RS = 0.4798
+ CJO = 2.701E-11
+ VJ = 0.7087
+ M = 0.3557
+ FC = 0.5
.MODEL BZX585-B24 D
+ IS = 1.13E-14
+ N = 1.103
+ BV = 24
+ IBV = 0.002
+ RS = 0.4798
+ CJO = 2.48E-11
+ VJ = 0.7142
+ M = 0.3513
+ FC = 0.5
.MODEL BZX585-B27 D
+ IS = 1.13E-14
+ N = 1.103
+ BV = 27
+ IBV = 0.002
+ RS = 0.4798
+ CJO = 2.233E-11
+ VJ = 0.7107
+ M = 0.3546
+ FC = 0.5
.MODEL BZX585-B2V4 D
+ IS = 1.033E-15
+ N = 1.001
+ BV = 2.4
+ IBV = 0.005
+ RS = 0.387
+ CJO = 3.615E-10
+ VJ = 0.5762
+ M = 0.2715
+ FC = 0.5
.MODEL BZX585-B2V7 D
+ IS = 1.033E-15
+ N = 1.001
+ BV = 2.7
+ IBV = 0.005
+ RS = 0.387
+ CJO = 3.518E-10
+ VJ = 0.6816
+ M = 0.3174
+ FC = 0.5
.MODEL BZX585-B30 D
+ IS = 1.13E-14
+ N = 1.103
+ BV = 30
+ IBV = 0.002
+ RS = 0.4798
+ CJO = 2.17E-011
+ VJ = 0.6718
+ M = 0.3465
+ FC = 0.5
.MODEL BZX585-B33 D
+ IS = 1.13E-14
+ N = 1.103
+ BV = 33
+ IBV = 0.002
+ RS = 0.4798
+ CJO = 2.019E-11
+ VJ = 0.7645
+ M = 0.3782
+ FC = 0.5
.MODEL BZX585-B36 D
+ IS = 1.13E-14
+ N = 1.103
+ BV = 36
+ IBV = 0.002
+ RS = 0.4798
+ CJO = 1.866E-11
+ VJ = 0.7591
+ M = 0.3771
+ FC = 0.5
.MODEL BZX585-B39 D
+ IS = 1.13E-14
+ N = 1.103
+ BV = 39
+ IBV = 0.002
+ RS = 0.4798
+ CJO = 1.772E-11
+ VJ = 0.7471
+ M = 0.3751
+ FC = 0.5
.MODEL BZX585-B3V0 D
+ IS = 1.033E-15
+ N = 1.001
+ BV = 3
+ IBV = 0.005
+ RS = 0.387
+ CJO = 3.346E-10
+ VJ = 0.6722
+ M = 0.3162
+ FC = 0.5
.MODEL BZX585-B3V3 D
+ IS = 1.033E-15
+ N = 1.001
+ BV = 3.3
+ IBV = 0.005
+ RS = 0.387
+ CJO = 3.162E-10
+ VJ = 0.6687
+ M = 0.3164
+ FC = 0.5
.MODEL BZX585-B3V6 D
+ IS = 1.033E-15
+ N = 1.001
+ BV = 3.6
+ IBV = 0.005
+ RS = 0.387
+ CJO = 3.062E-10
+ VJ = 0.6643
+ M = 0.3168
+ FC = 0.5
.MODEL BZX585-B3V9 D
+ IS = 1.033E-15
+ N = 1.001
+ BV = 3.9
+ IBV = 0.005
+ RS = 0.387
+ CJO = 2.82E-10
+ VJ = 0.6743
+ M = 0.3219
+ FC = 0.5
.MODEL BZX585-B43 D
+ IS = 1.13E-14
+ N = 1.103
+ BV = 43
+ IBV = 0.002
+ RS = 0.4798
+ CJO = 1.638E-11
+ VJ = 0.7517
+ M = 0.3762
+ FC = 0.5
.MODEL BZX585-B47 D
+ IS = 1.13E-14
+ N = 1.103
+ BV = 47
+ IBV = 0.002
+ RS = 0.4798
+ CJO = 1.707E-11
+ VJ = 0.888
+ M = 0.4248
+ FC = 0.5
.MODEL BZX585-B4V3 D
+ IS = 1.033E-15
+ N = 1.001
+ BV = 4.3
+ IBV = 0.005
+ RS = 0.387
+ CJO = 2.715E-10
+ VJ = 0.7721
+ M = 0.3557
+ FC = 0.5
.MODEL BZX585-B4V7 D
+ IS = 1.033E-15
+ N = 1.001
+ BV = 4.7
+ IBV = 0.005
+ RS = 0.387
+ CJO = 2.589E-10
+ VJ = 0.8029
+ M = 0.3636
+ FC = 0.5
.MODEL BZX585-B51 D
+ IS = 1.13E-14
+ N = 1.103
+ BV = 51
+ IBV = 0.002
+ RS = 0.4798
+ CJO = 1.602E-11
+ VJ = 0.8454
+ M = 0.4154
+ FC = 0.5
.MODEL BZX585-B56 D
+ IS = 1.13E-14
+ N = 1.103
+ BV = 56
+ IBV = 0.002
+ RS = 0.4798
+ CJO = 1.508E-11
+ VJ = 0.8856
+ M = 0.4177
+ FC = 0.5
.MODEL BZX585-B5V1 D
+ IS = 1.033E-15
+ N = 1.001
+ BV = 5.1
+ IBV = 0.005
+ RS = 0.387
+ CJO = 2.402E-10
+ VJ = 0.7934
+ M = 0.3578
+ FC = 0.5
.MODEL BZX585-B5V6 D
+ IS = 1.033E-15
+ N = 1.001
+ BV = 5.6
+ IBV = 0.005
+ RS = 0.387
+ CJO = 1.961E-10
+ VJ = 0.9187
+ M = 0.423
+ FC = 0.5
.MODEL BZX585-B62 D
+ IS = 1.13E-14
+ N = 1.103
+ BV = 62
+ IBV = 0.002
+ RS = 0.4798
+ CJO = 1.403E-11
+ VJ = 0.8053
+ M = 0.4033
+ FC = 0.5
.MODEL BZX585-B68 D
+ IS = 1.13E-14
+ N = 1.103
+ BV = 68
+ IBV = 0.002
+ RS = 0.4798
+ CJO = 1.321E-11
+ VJ = 0.7877
+ M = 0.4021
+ FC = 0.5
.MODEL BZX585-B6V2 D
+ IS = 1.033E-15
+ N = 1.001
+ BV = 6.2
+ IBV = 0.005
+ RS = 0.387
+ CJO = 1.732E-10
+ VJ = 0.9334
+ M = 0.4321
+ FC = 0.5
.MODEL BZX585-B6V8 D
+ IS = 1.033E-15
+ N = 1.001
+ BV = 6.8
+ IBV = 0.005
+ RS = 0.387
+ CJO = 1.519E-10
+ VJ = 0.9041
+ M = 0.4027
+ FC = 0.5
.MODEL BZX585-B75 D
+ IS = 1.13E-14
+ N = 1.103
+ BV = 75
+ IBV = 0.002
+ RS = 0.4798
+ CJO = 1.246E-11
+ VJ = 0.822
+ M = 0.4052
+ FC = 0.5
.MODEL BZX585-B7V5 D
+ IS = 1.13E-14
+ N = 1.103
+ BV = 7.5
+ IBV = 0.005
+ RS = 0.4798
+ CJO = 8.767E-11
+ VJ = 0.5829
+ M = 0.3299
+ FC = 0.5
.MODEL BZX585-B8V2 D
+ IS = 1.13E-14
+ N = 1.103
+ BV = 8.2
+ IBV = 0.005
+ RS = 0.4798
+ CJO = 7.562E-11
+ VJ = 0.5765
+ M = 0.3298
+ FC = 0.5
.MODEL BZX585-B9V1 D
+ IS = 1.13E-14
+ N = 1.103
+ BV = 9.1
+ IBV = 0.005
+ RS = 0.4798
+ CJO = 7.316E-11
+ VJ = 0.5667
+ M = 0.3295
+ FC = 0.5

.SUBCKT BZX84C75 1 3
D1 1 3 BZX84C75
.MODEL BZX84C75 D
+ IS = 9.794E-15
+ N = 1.101
+ BV = 75
+ IBV = 0.002
+ RS = 0.3363
+ CJO = 1.246E-11
+ VJ = 0.822
+ M = 0.4052
+ FC = 0.5
.ENDS

.MODEL BZX884-B10 D
+ IS = 5.229E-15
+ N = 1.061
+ BV = 10
+ IBV = 0.005
+ RS = 0.4467
+ CJO = 6.004E-11
+ VJ = 0.6305
+ M = 0.3302
+ FC = 0.5
.MODEL BZX884-B11 D
+ IS = 5.229E-15
+ N = 1.061
+ BV = 11
+ IBV = 0.005
+ RS = 0.4467
+ CJO = 5.404E-11
+ VJ = 0.5891
+ M = 0.3295
+ FC = 0.5
.MODEL BZX884-B12 D
+ IS = 5.229E-15
+ N = 1.061
+ BV = 12
+ IBV = 0.005
+ RS = 0.4467
+ CJO = 4.928E-11
+ VJ = 0.575
+ M = 0.3292
+ FC = 0.5
.MODEL BZX884-B13 D
+ IS = 5.229E-15
+ N = 1.061
+ BV = 13
+ IBV = 0.005
+ RS = 0.4467
+ CJO = 4.377E-11
+ VJ = 0.5656
+ M = 0.3289
+ FC = 0.5
.MODEL BZX884-B15 D
+ IS = 5.229E-15
+ N = 1.061
+ BV = 15
+ IBV = 0.005
+ RS = 0.4467
+ CJO = 4.023E-11
+ VJ = 0.6144
+ M = 0.3297
+ FC = 0.5
.MODEL BZX884-B16 D
+ IS = 5.229E-15
+ N = 1.061
+ BV = 16
+ IBV = 0.005
+ RS = 0.4467
+ CJO = 3.509E-11
+ VJ = 0.6502
+ M = 0.3378
+ FC = 0.5
.MODEL BZX884-B18 D
+ IS = 5.229E-15
+ N = 1.061
+ BV = 18
+ IBV = 0.005
+ RS = 0.4467
+ CJO = 3.17E-11
+ VJ = 0.6421
+ M = 0.3327
+ FC = 0.5
.MODEL BZX884-B20 D
+ IS = 5.229E-15
+ N = 1.061
+ BV = 20
+ IBV = 0.005
+ RS = 0.4467
+ CJO = 2.915E-11
+ VJ = 0.635
+ M = 0.3362
+ FC = 0.5
.MODEL BZX884-B22 D
+ IS = 5.229E-15
+ N = 1.061
+ BV = 22
+ IBV = 0.005
+ RS = 0.4467
+ CJO = 2.701E-11
+ VJ = 0.7087
+ M = 0.3557
+ FC = 0.5
.MODEL BZX884-B24 D
+ IS = 5.229E-15
+ N = 1.061
+ BV = 24
+ IBV = 0.002
+ RS = 0.4467
+ CJO = 2.48E-11
+ VJ = 0.7142
+ M = 0.3513
+ FC = 0.5
.MODEL BZX884-B27 D
+ IS = 5.229E-15
+ N = 1.061
+ BV = 27
+ IBV = 0.002
+ RS = 0.4467
+ CJO = 2.233E-11
+ VJ = 0.7107
+ M = 0.3546
+ FC = 0.5
.MODEL BZX884-B2V4 D
+ IS = 7.066E-16
+ N = 0.9643
+ BV = 2.4
+ IBV = 0.005
+ RS = 0.2544
+ CJO = 3.615E-10
+ VJ = 0.5762
+ M = 0.2715
+ FC = 0.5
.MODEL BZX884-B2V7 D
+ IS = 7.066E-16
+ N = 0.9643
+ BV = 2.7
+ IBV = 0.005
+ RS = 0.2544
+ CJO = 3.518E-10
+ VJ = 0.6816
+ M = 0.3174
+ FC = 0.5
.MODEL BZX884-B30 D
+ IS = 5.229E-15
+ N = 1.061
+ BV = 30
+ IBV = 0.002
+ RS = 0.4467
+ CJO = 2.17E-011
+ VJ = 0.6718
+ M = 0.3465
+ FC = 0.5
.MODEL BZX884-B33 D
+ IS = 5.229E-15
+ N = 1.061
+ BV = 33
+ IBV = 0.002
+ RS = 0.4467
+ CJO = 2.019E-11
+ VJ = 0.7645
+ M = 0.3782
+ FC = 0.5
.MODEL BZX884-B36 D
+ IS = 5.229E-15
+ N = 1.061
+ BV = 36
+ IBV = 0.002
+ RS = 0.4467
+ CJO = 1.866E-11
+ VJ = 0.7591
+ M = 0.3771
+ FC = 0.5
.MODEL BZX884-B39 D
+ IS = 5.229E-15
+ N = 1.061
+ BV = 39
+ IBV = 0.002
+ RS = 0.4467
+ CJO = 1.772E-11
+ VJ = 0.7471
+ M = 0.3751
+ FC = 0.5
.MODEL BZX884-B3V0 D
+ IS = 7.066E-16
+ N = 0.9643
+ BV = 3
+ IBV = 0.005
+ RS = 0.2544
+ CJO = 3.346E-10
+ VJ = 0.6722
+ M = 0.3162
+ FC = 0.5
.MODEL BZX884-B3V3 D
+ IS = 7.066E-16
+ N = 0.9643
+ BV = 3.3
+ IBV = 0.005
+ RS = 0.2544
+ CJO = 3.162E-10
+ VJ = 0.6687
+ M = 0.3164
+ FC = 0.5
.MODEL BZX884-B3V6 D
+ IS = 7.066E-16
+ N = 0.9643
+ BV = 3.6
+ IBV = 0.005
+ RS = 0.2544
+ CJO = 3.062E-10
+ VJ = 0.6643
+ M = 0.3168
+ FC = 0.5
.MODEL BZX884-B3V9 D