*Vishay MOSFET Models

.SUBCKT SI2307DS 4 1 2
M1  3 1 2 2 PMOS W=382620u L=0.30u 
M2  2 1 2 4 NMOS W=382620u L=1.20u 
R1  4 3 RTEMP 27E-3
CGS 1 2 425E-12
DBD 4 2 DBD
*****************************************************************
.MODEL  PMOS       PMOS (  LEVEL  = 3             TOX    = 5E-8
+ RS     = 32E-3           RD     = 0             NSUB   = 0.9E17   
+ kp     = 0.9E-5          UO     = 400             
+ VMAX   = 0               XJ     = 0.5E-6        KAPPA  = 4E-3
+ ETA    = 1E-4            TPG    = -1  
+ IS     = 0               LD     = 0                        
+ CGSO   = 0               CGDO   = 0             CGBO   = 0 
+ TLEV   = 1               BEX    = -1.5          TCV    = 4.5E-3
+ NFS    = 0.8E12          DELTA  = 0.1)
*****************************************************************
.MODEL  NMOS       NMOS (  LEVEL  = 3             TOX    = 5E-8
+NSUB    = 45E15           TPG    = 1)   
*****************************************************************
.MODEL DBD D (CJO=200E-12 VJ=0.38    M=0.3
+RS=0.1 FC=0.5 IS=1E-11 TT=3.8E-8 N=1 BV=35)
*****************************************************************
.MODEL RTEMP RES (TC1=9E-3   TC2=5.5E-6)
*****************************************************************
.ENDS

.SUBCKT SI9436DY 4 1 2
M1  3 1 2 2 NMOS W=1601770u L=0.50u 
M2  2 1 2 4 PMOS W=1601770u L=0.50u
R1  4 3     RTEMP 17E-3
CGS 1 2     100E-12
DBD 2 4     DBD
**************************************************************************
.MODEL  NMOS         NMOS (LEVEL  = 3               TOX    = 5E-8
+ RS     = 10E-3           RD     = 0               NSUB   = 1.65E17   
+ kp     = 1.1E-5          UO     = 650             
+ VMAX   = 0               XJ     = 5E-7            KAPPA  = 15E-2
+ ETA    = 1E-4            TPG    = 1  
+ IS     = 0               LD     = 0                             
+ CGSO   = 0               CGDO   = 0               CGBO   = 0 
+ NFS    = 0.8E12          DELTA  = 0.1)
*************************************************************************
.MODEL  PMOS         PMOS (LEVEL  = 3               TOX    = 5E-8
+NSUB    = 1E16            TPG    = -1)   
*************************************************************************
.MODEL DBD D (CJO=700E-12 VJ=.38    M=0.32
+FC=0.1 IS=1E-12 TT=3.5E-8 N=1 BV=30.5)
*************************************************************************
.MODEL RTEMP RES (TC1=6.1E-3   TC2=5.5E-6)
*************************************************************************
.ENDS
 
.SUBCKT SI6955ADQ 4 1 2
M1  3 1 2 2 PMOS W=402268u L=0.50u 
M2  2 1 2 4 NMOS W=402268u L=1.45u
R1  4 3 RTEMP 25E-3
CGS 1 2 410E-12
DBD 4 2 DBD
*****************************************************************
.MODEL  PMOS       PMOS (  LEVEL  = 3             TOX    = 5E-8
+ RS     = 34E-3           RD     = 0             NSUB   = 0.84E17   
+ KP     = 1.5E-5          UO     = 400             
+ VMAX   = 0               XJ     = 0.5E-6        KAPPA  = 10E-2
+ ETA    = 1E-4            TPG    = -1  
+ IS     = 0               LD     = 0                        
+ CGSO   = 0               CGDO   = 0             CGBO   = 0 
+ NFS    = 0.8E12          DELTA  = 0.1)
*****************************************************************
.MODEL  NMOS       NMOS (  LEVEL  = 3             TOX    = 5E-8
+NSUB    = 20E15           TPG    = 1)   
*****************************************************************
.MODEL DBD D (CJO=240E-12 VJ=0.38    M=0.36
+RS=0.5 FC=0.5 IS=1E-12 TT=6.5E-8 N=1 BV=31)
*****************************************************************
.MODEL RTEMP RES (TC1=11E-3   TC2=8E-6)
*****************************************************************
.ENDS

*February 21, 2005
*Doc. ID: 76150, S-50262, Rev. A
.SUBCKT 2N7000KL 4 1 2
M1   3 1 2 2 NMOS W=26124u L=0.50u 
M2   2 1 2 4 PMOS W=26124u L=0.95u 
R1   4 3     RTEMP 4.5E-1
CGS  1 2     24E-12
DBD  2 4     DBD
************************************************************  
.MODEL  NMOS       NMOS (LEVEL  = 3          TOX    = 7E-8
+ RS     = 4E-1          RD     = 0          NSUB   = 6.2E16   
+ KP     = 1E-5          UO     = 650             
+ VMAX   = 0             XJ     = 5E-7       KAPPA  = 8E-2
+ ETA    = 1E-4          TPG    = 1  
+ IS     = 0             LD     = 0                             
+ CGSO   = 0             CGDO   = 0          CGBO   = 0 
+ NFS    = 0.8E12        DELTA  = 0.1)
************************************************************  
.MODEL  PMOS       PMOS (LEVEL  = 3          TOX    = 7E-8
+NSUB    = 2.6E16        TPG    = -1)   
************************************************************  
.MODEL DBD D (CJO=13E-12 VJ=0.38 M=0.30
+RS=1 FC=0.1 IS=1E-12 TT=4E-8 N=1 BV=60.5)
************************************************************ 
.MODEL RTEMP RES (TC1=8E-3 TC2=5.5E-6)
************************************************************  
.ENDS

*Feb. 7, 2005
*Doc. ID: 76769, S-50151, Rev. B
.SUBCKT 2N7002E 4 1 2  
M1  3 1 2 2 NMOS W=18981u L=0.50u 
M2  2 1 2 4 PMOS W=18981u L=0.70u
R1  4 3     RTEMP 1000E-3
CGS 1 2     23E-12
DBD 2 4     DBD
************************************************************* 
.MODEL  NMOS       NMOS ( LEVEL  = 3          TOX    = 5E-8
+ RS     = 220E-3         RD     = 0          NSUB   = 3.3E17  
+ KP     = 6.5E-5         UO     = 650             
+ VMAX   = 0              XJ     = 5E-7       KAPPA  = 2E-1
+ ETA    = 1E-4           TPG    = 1  
+ IS     = 0              LD     = 0                           
+ CGSO   = 0              CGDO   = 0          CGBO   = 0 
+ NFS    = 0.8E12         DELTA  = 0.1)
************************************************************** 
.MODEL  PMOS       PMOS ( LEVEL  = 3          TOX    = 5E-8
+NSUB    = 1.5E16         TPG    = -1)   
************************************************************** 
.MODEL DBD D (CJO=26E-12 VJ=0.38 M=0.38
+RS=0.1 FC=0.5 IS=1E-12 TT=5E-8 N=1 BV=26)
************************************************************** 
.MODEL RTEMP RES (TC1=5E-3 TC2=5.5E-6)
************************************************************** 
.ENDS

*February 21, 2005
*Doc. ID: 77605, S-50261, Rev. A
.SUBCKT 2N7002K 4 1 2
M1   3 1 2 2 NMOS W=26124u L=0.50u 
M2   2 1 2 4 PMOS W=26124u L=0.95u 
R1   4 3     RTEMP 4.5E-1
CGS  1 2     24E-12
DBD  2 4     DBD
************************************************************  
.MODEL  NMOS       NMOS (LEVEL  = 3          TOX    = 7E-8
+ RS     = 4E-1          RD     = 0          NSUB   = 6.2E16   
+ KP     = 1E-5          UO     = 650             
+ VMAX   = 0             XJ     = 5E-7       KAPPA  = 8E-2
+ ETA    = 1E-4          TPG    = 1  
+ IS     = 0             LD     = 0                             
+ CGSO   = 0             CGDO   = 0          CGBO   = 0 
+ NFS    = 0.8E12        DELTA  = 0.1)
************************************************************  
.MODEL  PMOS       PMOS (LEVEL  = 3          TOX    = 7E-8
+NSUB    = 2.6E16        TPG    = -1)   
************************************************************  
.MODEL DBD D (CJO=13E-12 VJ=0.38 M=0.30
+RS=1 FC=0.1 IS=1E-12 TT=4E-8 N=1 BV=60.5)
************************************************************ 
.MODEL RTEMP RES (TC1=8E-3 TC2=5.5E-6)
************************************************************  
.ENDS

*July 27, 2005
*Doc. ID: 77168, S-51298, Rev. C
.SUBCKT Si1012R 4 1 2
M1   3 5 2 2 NMOS W=29549u L=0.50u 
M2   2 5 2 4 PMOS W=29549u L=0.95u 
R1   4 3     RTEMP 130E-3
CGS  5 2     41E-12
DBD  2 4     DBD
XESD 1 5 2   Si1012R_ESD
************************************************************  
.MODEL  NMOS         NMOS (LEVEL  = 3        TOX    = 1.7E-8
+ RS     = 280E-3          RD     = 0        NSUB   = 1.5E17   
+ KP     = 5.6E-5          UO     = 650             
+ VMAX   = 0               XJ     = 5E-7     KAPPA  = 10E-2
+ ETA    = 1E-4            TPG    = 1  
+ IS     = 0               LD     = 0                             
+ CGSO   = 0               CGDO   = 0        CGBO   = 0 
+ NFS    = 0.8E12          DELTA  = 0.1)
************************************************************  
.MODEL  PMOS         PMOS (LEVEL  = 3        TOX    = 1.7E-8
+NSUB    = 2.6E16          TPG    = -1)   
************************************************************  
.MODEL DBD D (CJO=32E-12 VJ=0.38 M=0.3
+RS=1 FC=0.1 IS=1E-12 TT=4E-8 N=1 BV=20.5)
************************************************************ 
.MODEL RTEMP RES (TC1=10E-3 TC2=5.5E-6)
************************************************************  
.ENDS Si1012R
.subckt Si1012R_ESD 1 5 2
rd1 1 6 1 TC=300
d1 6 2 dleak 
.MODEL dleak d (IS=3E-9 XTI=350 EG=1.17 T_MEASURED=25 TBV1=0 N=34 BV=6.4) 
rd2 1 7 34 TC=-0.0002
d2 8 7 dout  
d3 8 2 dout  
.MODEL dout D (IS=5.1E-9 XTI=-35 EG=1.17 T_MEASURED=25 TBV1=-5.64E-4 N=2 BV=6.38)
rpoly 1 5 100 TC=0.001
rd4 5 9 100 TC=-0.015
d4 10 9 din 
d5 10 2 din  
.MODEL din D (IS=5.1E-9 XTI=-30 EG=1.17 T_MEASURED=25 TBV1=-1.76E-4 N=1.5 BV=6.25)
.ends Si1012R_ESD

*Feb 7, 2005
*Doc. ID: 77587, S-50151, Rev. B
*File Name: Si1013R_ps.txt and Si1013R_ps.lib
.SUBCKT Si1013R 4 1 2
M1  3 1 2 2 PMOS W=29856u L=0.50u  
M2  2 1 2 4 NMOS W=29856u L=0.50u    
R1  4 3     RTEMP 28E-2
CGS 1 2     60E-12
DBD 4 2     DBD
*******************************************************************
.MODEL  PMOS       PMOS (  LEVEL  = 3               TOX    = 1.7E-8
+ RS     = 25E-2           RD     = 0               NSUB   = 1E15   
+ KP     = 1.55E-5         UO     = 400             
+ VMAX   = 0               XJ     = 5E-7            KAPPA  = 1E-4
+ ETA    = 1E-4            TPG    = -1  
+ IS     = 0               LD     = 0                
+ CGSO   = 0               CGDO   = 0               CGBO   = 0 
+ NFS    = 0.8E12          DELTA  = 0.1)
*******************************************************************
.MODEL  NMOS       NMOS (  LEVEL  = 3               TOX    = 1.7E-8
+NSUB    = 2E17             NFS   = 1E12            TPG    = -1)   
*******************************************************************
.MODEL DBD D (CJO=30E-12 VJ=0.38 M=0.30
+RS=1 FC=0.5 IS=1E-12 TT=5E-8 N=1 BV=20.5)
*******************************************************************
.MODEL RTEMP RES (TC1=3.7E-3  TC2=5.5E-6)
*******************************************************************
.ENDS

*Feb. 7, 2005
*Doc. ID:77560, S-50151, Rev. B
*Dn Gn Sn Dp Gp Sp
.SUBCKT Si1016X 6 2 1 3 5 4  
X1   6 2 1 Si1016N
X2   3 5 4 Si1016P
XESD 1 5 2 Si1016X_ESD
.ENDS Si1016X
*N-CH
.SUBCKT Si1016N 4 1 2
M1   3 5 2 2 NMOS W=29549u L=0.50u 
M2   2 5 2 4 PMOS W=29549u L=0.95u 
R1   4 3     RTEMP 130E-3
CGS  5 2     41E-12
DBD  2 4     DBD
************************************************************  
.MODEL  NMOS         NMOS (LEVEL  = 3        TOX    = 1.7E-8
+ RS     = 280E-3          RD     = 0        NSUB   = 1.5E17   
+ KP     = 5.6E-5          UO     = 650             
+ VMAX   = 0               XJ     = 5E-7     KAPPA  = 10E-2
+ ETA    = 1E-4            TPG    = 1  
+ IS     = 0               LD     = 0                             
+ CGSO   = 0               CGDO   = 0        CGBO   = 0 
+ NFS    = 0.8E12          DELTA  = 0.1)
************************************************************  
.MODEL  PMOS         PMOS (LEVEL  = 3        TOX    = 1.7E-8
+NSUB    = 2.6E16          TPG    = -1)   
************************************************************  
.MODEL DBD D (CJO=32E-12 VJ=0.38 M=0.3
+RS=1 FC=0.1 IS=1E-12 TT=4E-8 N=1 BV=20.5)
************************************************************ 
.MODEL RTEMP RES (TC1=10E-3 TC2=5.5E-6)
************************************************************  
.ENDS Si1016N
*P-CH
.SUBCKT Si1016P 4 1 2
M1   3 5 2 2 PMOS W=29856u L=0.50u 
M2   2 5 2 4 NMOS W=29856u L=0.50u
R1   4 3     RTEMP 26E-2
CGS  5 2     45E-12
DBD  4 2     DBD
**************************************************************** 
.MODEL  PMOS        PMOS ( LEVEL  = 3            TOX    = 1.7E-8
+ RS     = 32E-2           RD     = 0            NSUB   = 7E15   
+ KP     = 1.8E-5          UO     = 400             
+ VMAX   = 0               XJ     = 5E-7         KAPPA  = 2E-3
+ ETA    = 1E-4            TPG    = -1  
+ IS     = 0               LD     = 0                
+ CGSO   = 0               CGDO   = 0            CGBO   = 0 
+ NFS    = 0.8E12          DELTA  = 0.1)
***************************************************************** 
.MODEL  NMOS        NMOS ( LEVEL  = 3            TOX    = 1.7E-8
+NSUB    = 2E17            TPG    = -1)   
***************************************************************** 
.MODEL DBD D (CJO=30E-12 VJ=0.38 M=0.30
+RS=1 FC=0.5 IS=1E-12 TT=5E-8 N=1 BV=20.2)
***************************************************************** 
.MODEL RTEMP RES (TC1=10E-3  TC2=5.5E-6)
***************************************************************** 
.ENDS Si1016P
.subckt Si1016X_ESD 1 5 2
rd1 1 6 1 TC=300
d1 6 2 dleak
.MODEL dleak d (IS=3E-9 XTI=350 EG=1.17 TREF=25 TCV=0 N=34 BV=6.4) 
rd2 1 7 34 TC=-0.0002
d2 8 7 dout
d3 8 2 dout
.MODEL dout D (IS=5.1E-9 XTI=-35 EG=1.17 TREF=25 TCV=3.6e-3 N=2 BV=6.38)
rpoly 1 5 100 TC=0.001
rd4 5 9 100 TC=-0.015
d4 10 9 din
d5 10 2 din
.MODEL din D (IS=5.1E-9 XTI=-30 EG=1.17 TREF=25 TCV=1.1e-3 N=1.5 BV=6.25)
.ends Si1016X_ESD 

*Feb. 7, 2005
*Doc. ID: 77575, S-50151, Rev. B
.SUBCKT Si1021R 4 1 2
M1  3 1 2 2 PMOS W=26124u L=0.50u   
M2  2 1 2 4 NMOS W=26124u L=1.20u    
R1  4 3     RTEMP 160E-2
CGS 1 2     12E-12
DBD 4 2     DBD
**************************************************************** 
.MODEL  PMOS        PMOS ( LEVEL  = 3            TOX    = 7E-8
+ RS     = 100E-2          RD     = 0            NSUB   = 8.2E16   
+ KP     = 9E-6            UO     = 400             
+ VMAX   = 0               XJ     = 5E-7         KAPPA  = 1E-1
+ ETA    = 1E-4            TPG    = -1  
+ IS     = 0               LD     = 0                
+ CGSO   = 0               CGDO   = 0            CGBO   = 0 
+ NFS    = 0.8E12          DELTA  = 0.1)
**************************************************************** 
.MODEL  NMOS        NMOS ( LEVEL  = 3            TOX    = 7E-8
+NSUB    = 4E16            NFS    = 1E12 )   
**************************************************************** 
.MODEL DBD D (CJO=11E-12 VJ=0.38 M=0.20
+RS=1 FC=0.5 IS=1E-12 TT=5E-8 N=1 BV=60.5)
**************************************************************** 
.MODEL RTEMP RES (TC1=7E-3 TC2=5.5E-6)
**************************************************************** 
.ENDS

*February 21, 2005
*Doc. ID: 77614, S-50260, Rev. A
.SUBCKT Si1022R 4 1 2
M1   3 1 2 2 NMOS W=26124u L=0.50u 
M2   2 1 2 4 PMOS W=26124u L=0.95u 
R1   4 3     RTEMP 4.5E-1
CGS  1 2     24E-12
DBD  2 4     DBD
************************************************************  
.MODEL  NMOS       NMOS (LEVEL  = 3          TOX    = 7E-8
+ RS     = 4E-1          RD     = 0          NSUB   = 6.2E16   
+ KP     = 1E-5          UO     = 650             
+ VMAX   = 0             XJ     = 5E-7       KAPPA  = 8E-2
+ ETA    = 1E-4          TPG    = 1  
+ IS     = 0             LD     = 0                             
+ CGSO   = 0             CGDO   = 0          CGBO   = 0 
+ NFS    = 0.8E12        DELTA  = 0.1)
************************************************************  
.MODEL  PMOS       PMOS (LEVEL  = 3          TOX    = 7E-8
+NSUB    = 2.6E16        TPG    = -1)   
************************************************************  
.MODEL DBD D (CJO=13E-12 VJ=0.38 M=0.30
+RS=1 FC=0.1 IS=1E-12 TT=4E-8 N=1 BV=60.5)
************************************************************ 
.MODEL RTEMP RES (TC1=8E-3 TC2=5.5E-6)
************************************************************  
.ENDS

*July 27, 2005
*Doc. ID: 77551, S-51297, Rev. C
.SUBCKT Si1023X 4 1 2
M1   3 5 2 2 PMOS W=29856 L=0.50 
M2   2 5 2 4 NMOS W=29856 L=0.50
R1   4 3     RTEMP 26E-2
CGS  5 2     45E-12
DBD  4 2     DBD
XESD 1 5 2   Si1023X_ESD
**************************************************************** 
.MODEL  PMOS        PMOS ( LEVEL  = 3            TOX    = 1.7E-8
+ RS     = 32E-2           RD     = 0            NSUB   = 7E15   
+ KP     = 1.8E-5          UO     = 400             
+ VMAX   = 0               XJ     = 5E-7         KAPPA  = 2E-3
+ ETA    = 1E-4            TPG    = -1  
+ IS     = 0               LD     = 0                
+ CGSO   = 0               CGDO   = 0            CGBO   = 0 
+ NFS    = 0.8E12          DELTA  = 0.1)
***************************************************************** 
.MODEL  NMOS        NMOS ( LEVEL  = 3            TOX    = 1.7E-8
+NSUB    = 2E17            TPG    = -1)   
***************************************************************** 
.MODEL DBD D (CJO=30E-12 VJ=0.38 M=0.30
+RS=1 FC=0.5 IS=1E-12 TT=5E-8 N=1 BV=20.2)
***************************************************************** 
.MODEL RTEMP RES (TC1=10E-3  TC2=5.5E-6)
***************************************************************** 
.ENDS Si1023X
.subckt Si1023X_ESD 1 5 2
rd1 1 6 1 TC=300
d1 6 2 dleak  
.MODEL dleak d (IS=3E-9 XTI=350 EG=1.17 T_MEASURED=25 TBV1=0 N=34 BV=6.4) 
rd2 1 7 34 TC=-0.0002
d2 8 7 dout  
d3 8 2 dout  
.MODEL dout D (IS=5.1E-9 XTI=-35 EG=1.17 T_MEASURED=25 TBV1=-5.64e-4 N=2 BV=6.38)
rpoly 1 5 100 TC=0.001
rd4 5 9 100 TC=-0.015
d4 10 9 din  
d5 10 2 din  
.MODEL din D (IS=5.1E-9 XTI=-30 EG=1.17 T_MEASURED=25 TBV1=-1.76e-4 N=1.5 BV=6.25)
.ends Si1023X_ESD 

*July 27, 2005
*Doc. ID: 77174, S-51302, Rev. C
.SUBCKT Si1024X 4 1 2
M1   3 5 2 2 NMOS W=29549u L=0.50u 
M2   2 5 2 4 PMOS W=29549u L=0.95u 
R1   4 3     RTEMP 130E-3
CGS  5 2     41E-12
DBD  2 4     DBD
XESD 1 5 2   Si1024X_ESD
************************************************************  
.MODEL  NMOS         NMOS (LEVEL  = 3        TOX    = 1.7E-8
+ RS     = 280E-3          RD     = 0        NSUB   = 1.5E17   
+ KP     = 5.6E-5          UO     = 650             
+ VMAX   = 0               XJ     = 5E-7     KAPPA  = 10E-2
+ ETA    = 1E-4            TPG    = 1  
+ IS     = 0               LD     = 0                             
+ CGSO   = 0               CGDO   = 0        CGBO   = 0 
+ NFS    = 0.8E12          DELTA  = 0.1)
************************************************************  
.MODEL  PMOS         PMOS (LEVEL  = 3        TOX    = 1.7E-8
+NSUB    = 2.6E16          TPG    = -1)   
************************************************************  
.MODEL DBD D (CJO=32E-12 VJ=0.38 M=0.30
+RS=1 FC=0.1 IS=1E-12 TT=4E-8 N=1 BV=20.5)
************************************************************ 
.MODEL RTEMP RES (TC1=10E-3 TC2=5.5E-6)
************************************************************  
.ENDS Si1024X
.subckt Si1024X_ESD 1 5 2
rd1 1 6 1 TC=300
d1 6 2 dleak
.MODEL dleak d (IS=3E-9 XTI=350 EG=1.17 T_MEASURED=25 TBV1=0 N=34 BV=6.4) 
rd2 1 7 34 TC=-0.0002
d2 8 7 dout
d3 8 2 dout
.MODEL dout D (IS=5.1E-9 XTI=-35 EG=1.17 T_MEASURED=25 TBV1=-5.64e-4 N=2 BV=6.38)
rpoly 1 5 100 TC=0.001
rd4 5 9 100 TC=-0.015
d4 10 9 din
d5 10 2 din
.MODEL din D (IS=5.1E-9 XTI=-30 EG=1.17 T_MEASURED=25 TBV1=-1.76e-4 N=1.5 BV=6.25)
.ends Si1024X_ESD  

*Feb. 7, 2005
*Doc. ID: 77578, S-50151, Rev. B
*File Name: Si1025X_PS.txt and Si1025X_PS.lib
.SUBCKT Si1025X 4 1 2
M1  3 1 2 2 PMOS W=26124u L=0.50u   
M2  2 1 2 4 NMOS W=26124u L=1.20u    
R1  4 3     RTEMP 160E-2
CGS 1 2     12E-12
DBD 4 2     DBD
**************************************************************** 
.MODEL  PMOS        PMOS ( LEVEL  = 3            TOX    = 7E-8
+ RS     = 100E-2          RD     = 0            NSUB   = 8.2E16   
+ KP     = 9E-6            UO     = 400             
+ VMAX   = 0               XJ     = 5E-7         KAPPA  = 1E-1
+ ETA    = 1E-4            TPG    = -1  
+ IS     = 0               LD     = 0                
+ CGSO   = 0               CGDO   = 0            CGBO   = 0 
+ NFS    = 0.8E12          DELTA  = 0.1)
**************************************************************** 
.MODEL  NMOS        NMOS ( LEVEL  = 3            TOX    = 7E-8
+NSUB    = 4E16            NFS    = 1E12 )   
**************************************************************** 
.MODEL DBD D (CJO=11E-12 VJ=0.38 M=0.20
+RS=1 FC=0.5 IS=1E-12 TT=5E-8 N=1 BV=60.5)
**************************************************************** 
.MODEL RTEMP RES (TC1=7E-3 TC2=5.5E-6)
**************************************************************** 
.ENDS

*February 21, 2005
*Doc. ID: 77599, S-50259, Rev. A
.SUBCKT Si1026X 4 1 2
M1   3 1 2 2 NMOS W=26124u L=0.50u 
M2   2 1 2 4 PMOS W=26124u L=0.95u 
R1   4 3     RTEMP 4.5E-1
CGS  1 2     24E-12
DBD  2 4     DBD
************************************************************  
.MODEL  NMOS       NMOS (LEVEL  = 3          TOX    = 7E-8
+ RS     = 4E-1          RD     = 0          NSUB   = 6.2E16   
+ KP     = 1E-5          UO     = 650             
+ VMAX   = 0             XJ     = 5E-7       KAPPA  = 8E-2
+ ETA    = 1E-4          TPG    = 1  
+ IS     = 0             LD     = 0                             
+ CGSO   = 0             CGDO   = 0          CGBO   = 0 
+ NFS    = 0.8E12        DELTA  = 0.1)
************************************************************  
.MODEL  PMOS       PMOS (LEVEL  = 3          TOX    = 7E-8
+NSUB    = 2.6E16        TPG    = -1)   
************************************************************  
.MODEL DBD D (CJO=13E-12 VJ=0.38 M=0.30
+RS=1 FC=0.1 IS=1E-12 TT=4E-8 N=1 BV=60.5)
************************************************************ 
.MODEL RTEMP RES (TC1=8E-3 TC2=5.5E-6)
************************************************************  
.ENDS

*Feb. 7, 2005
*Doc. ID: 77569, S-50151, Rev. B
*File Name: Si1029X_PS.txt and Si1029X_PS.lib
*Dn Gn Sn Dp Gp Sp
.SUBCKT Si1029X 6 2 1 3 5 4  
X1 6 2 1 Si1029N
X2 3 5 4 Si1029P
.ENDS Si1029X
*N-CH
.SUBCKT Si1029N 4 1 2
M1   3 1 2 2 NMOS W=26124u L=0.50u 
M2   2 1 2 4 PMOS W=26124u L=0.95u 
R1   4 3     RTEMP 4.5E-1
CGS  1 2     24E-12
DBD  2 4     DBD
************************************************************  
.MODEL  NMOS       NMOS (LEVEL  = 3          TOX    = 7E-8
+ RS     = 4E-1          RD     = 0          NSUB   = 6.2E16   
+ KP     = 1E-5          UO     = 650             
+ VMAX   = 0             XJ     = 5E-7       KAPPA  = 8E-2
+ ETA    = 1E-4          TPG    = 1  
+ IS     = 0             LD     = 0                             
+ CGSO   = 0             CGDO   = 0          CGBO   = 0 
+ NFS    = 0.8E12        DELTA  = 0.1)
************************************************************  
.MODEL  PMOS       PMOS (LEVEL  = 3          TOX    = 7E-8
+NSUB    = 2.6E16        TPG    = -1)   
************************************************************  
.MODEL DBD D (CJO=13E-12 VJ=0.38 M=0.30
+RS=1 FC=0.1 IS=1E-12 TT=4E-8 N=1 BV=60.5)
************************************************************ 
.MODEL RTEMP RES (TC1=8E-3 TC2=5.5E-6)
************************************************************  
.ENDS Si1029N
*P-CH
.SUBCKT Si1029P 4 1 2
M1  3 1 2 2 PMOS W=26124u L=0.50u   
M2  2 1 2 4 NMOS W=26124u L=1.20u    
R1  4 3     RTEMP 160E-2
CGS 1 2     12E-12
DBD 4 2     DBD
**************************************************************** 
.MODEL  PMOS        PMOS ( LEVEL  = 3            TOX    = 7E-8
+ RS     = 100E-2          RD     = 0            NSUB   = 8.2E16   
+ KP     = 9E-6            UO     = 400             
+ VMAX   = 0               XJ     = 5E-7         KAPPA  = 1E-1
+ ETA    = 1E-4            TPG    = -1  
+ IS     = 0               LD     = 0                
+ CGSO   = 0               CGDO   = 0            CGBO   = 0 
+ NFS    = 0.8E12          DELTA  = 0.1)
**************************************************************** 
.MODEL  NMOS        NMOS ( LEVEL  = 3            TOX    = 7E-8
+NSUB    = 4E16            NFS    = 1E12 )   
**************************************************************** 
.MODEL DBD D (CJO=11E-12 VJ=0.38 M=0.20
+RS=1 FC=0.5 IS=1E-12 TT=5E-8 N=1 BV=60.5)
**************************************************************** 
.MODEL RTEMP RES (TC1=7E-3 TC2=5.5E-6)
****************************************************************  
.ENDS Si1029P  

*Feb 7, 2005
*Doc. ID: 77593, S-50151, Rev. B
*File Name: Si1031R_ps.txt and Si1031R_ps.lib
.SUBCKT Si1031R 4 1 2
M1   3 5 2 2 PMOS W=29856u L=0.50u 
M2   2 5 2 4 NMOS W=29856u L=0.50u
R1   4 3     RTEMP 26E-2
CGS  5 2     45E-12
DBD  4 2     DBD
XESD 1 5 2   Si1031R_ESD
**************************************************************** 
.MODEL  PMOS        PMOS ( LEVEL  = 3            TOX    = 1.7E-8
+ RS     = 32E-2           RD     = 0            NSUB   = 7E15   
+ KP     = 1.8E-5          UO     = 400             
+ VMAX   = 0               XJ     = 5E-7         KAPPA  = 2E-3
+ ETA    = 1E-4            TPG    = -1  
+ IS     = 0               LD     = 0                
+ CGSO   = 0               CGDO   = 0            CGBO   = 0 
+ NFS    = 0.8E12          DELTA  = 0.1)
***************************************************************** 
.MODEL  NMOS        NMOS ( LEVEL  = 3            TOX    = 1.7E-8
+NSUB    = 2E17            TPG    = -1)   
***************************************************************** 
.MODEL DBD D (CJO=30E-12 VJ=0.38 M=0.30
+RS=1 FC=0.5 IS=1E-12 TT=5E-8 N=1 BV=20.2)
***************************************************************** 
.MODEL RTEMP RES (TC1=10E-3  TC2=5.5E-6)
***************************************************************** 
.ENDS Si1031R
.subckt Si1031R_ESD 1 5 2
rd1 1 6 1 TC=300
d1 6 2 dleak  
.MODEL dleak d (IS=3E-9 XTI=350 EG=1.17 T_MEASURED=25 TBV1=0 N=34 BV=6.4) 
rd2 1 7 34 TC=-0.0002
d2 8 7 dout  
d3 8 2 dout  
.MODEL dout D (IS=5.1E-9 XTI=-35 EG=1.17 T_MEASURED=25 TBV1=-5.64e-4 N=2 BV=6.38)
rpoly 1 5 100 TC=0.001
rd4 5 9 100 TC=-0.015
d4 10 9 din  
d5 10 2 din  
.MODEL din D (IS=5.1E-9 XTI=-30 EG=1.17 T_MEASURED=25 TBV1=-1.76e-4 N=1.5 BV=6.25)
.ends Si1031R_ESD 

*July 27, 2005
*Doc. ID: 75961, S-51299, Rev. C
.SUBCKT Si1032R 4 1 2
M1   3 5 2 2 NMOS W=29549u L=0.50u 
M2   2 5 2 4 PMOS W=29549u L=0.95u 
R1   4 3     RTEMP 130E-3
CGS  5 2     41E-12
DBD  2 4     DBD
XESD 1 5 2   Si1032R_ESD
************************************************************  
.MODEL  NMOS         NMOS (LEVEL  = 3        TOX    = 1.7E-8
+ RS     = 280E-3          RD     = 0        NSUB   = 1.5E17   
+ KP     = 5.6E-5          UO     = 650             
+ VMAX   = 0               XJ     = 5E-7     KAPPA  = 10E-2
+ ETA    = 1E-4            TPG    = 1  
+ IS     = 0               LD     = 0                             
+ CGSO   = 0               CGDO   = 0        CGBO   = 0 
+ NFS    = 0.8E12          DELTA  = 0.1)
************************************************************  
.MODEL  PMOS         PMOS (LEVEL  = 3        TOX    = 1.7E-8
+NSUB    = 2.6E16          TPG    = -1)   
************************************************************  
.MODEL DBD D (CJO=32E-12 VJ=0.38 M=0.3
+RS=1 FC=0.1 IS=1E-12 TT=4E-8 N=1 BV=20.5)
************************************************************ 
.MODEL RTEMP RES (TC1=10E-3 TC2=5.5E-6)
************************************************************  
.ENDS Si1032R
.subckt Si1032R_ESD 1 5 2
rd1 1 6 1 TC=300
d1 6 2 dleak 
.MODEL dleak d (IS=3E-9 XTI=350 EG=1.17 T_MEASURED=25 TBV1=0 N=34 BV=6.4) 
rd2 1 7 34 TC=-0.0002
d2 8 7 dout 1
d3 8 2 dout 1
.MODEL dout D (IS=5.1E-9 XTI=-35 EG=1.17 T_MEASURED=25 TBV1=-5.64E-4 N=2 BV=6.38)
rpoly 1 5 100 TC=0.001
rd4 5 9 100 TC=-0.015
d4 10 9 din 1
d5 10 2 din 1
.MODEL din D (IS=5.1E-9 XTI=-30 EG=1.17 T_MEASURED=25 TBV1=-1.76E-4 N=1.5 BV=6.25)
.ends Si1032R_ESD  

*July 27, 2005
*Doc. ID: 75835, S-51416, Rev. D
.SUBCKT Si1032X 4 1 2
M1   3 5 2 2 NMOS W=29549u L=0.50u 
M2   2 5 2 4 PMOS W=29549u L=0.95u 
R1   4 3     RTEMP 130E-3
CGS  5 2     41E-12
DBD  2 4     DBD
XESD 1 5 2   Si1032X_ESD
************************************************************  
.MODEL  NMOS         NMOS (LEVEL  = 3        TOX    = 1.7E-8
+ RS     = 280E-3          RD     = 0        NSUB   = 1.5E17   
+ KP     = 5.6E-5          UO     = 650             
+ VMAX   = 0               XJ     = 5E-7     KAPPA  = 10E-2
+ ETA    = 1E-4            TPG    = 1  
+ IS     = 0               LD     = 0                             
+ CGSO   = 0               CGDO   = 0        CGBO   = 0 
+ NFS    = 0.8E12          DELTA  = 0.1)
************************************************************  
.MODEL  PMOS         PMOS (LEVEL  = 3        TOX    = 1.7E-8
+NSUB    = 2.6E16          TPG    = -1)   
************************************************************  
.MODEL DBD D (CJO=32E-12 VJ=0.38 M=0.3
+RS=1 FC=0.1 IS=1E-12 TT=4E-8 N=1 BV=20.5)
************************************************************ 
.MODEL RTEMP RES (TC1=10E-3 TC2=5.5E-6)
************************************************************  
.ENDS Si1032X
.subckt Si1032X_ESD 1 5 2
rd1 1 6 1 TC=300
d1 6 2 dleak 
.MODEL dleak d (IS=3E-9 XTI=350 EG=1.17 T_MEASURED=25 TBV1=0 N=34 BV=6.4) 
rd2 1 7 34 TC=-0.0002
d2 8 7 dout 
d3 8 2 dout  
.MODEL dout D (IS=5.1E-9 XTI=-35 EG=1.17 T_MEASURED=25 TBV1=-5.64E-4 N=2 BV=6.38)
rpoly 1 5 100 TC=0.001
rd4 5 9 100 TC=-0.015
d4 10 9 din  
d5 10 2 din  
.MODEL din D (IS=5.1E-9 XTI=-30 EG=1.17 T_MEASURED=25 TBV1=-1.76E-4 N=1.5 BV=6.25)
.ends Si1032X_ESD  

*Feb. 7, 2005
*Doc. ID: 75838, S-50151, Rev. B
.SUBCKT Si1034X 4 1 2
M1  3 5 2 2 NMOS W=29549u L=0.50u 
M2  2 5 2 4 PMOS W=29549u L=0.95u 
R1  4 3     RTEMP 130E-3 
CGS 5 2     41E-12
DBD 2 4     DBD
XESD 1 5 2 esd_nch
.subckt esd_nch 1 5 2
rd1 1 6 1 TC=300
d1 6 2 dleak
.MODEL dleak d (IS=3E-9 XTI=350 EG=1.17 TREF=25 TCV=0 N=34 BV=6.4) 
rd2 1 7 34 TC=-0.0002
d2 8 7 dout
d3 8 2 dout
.MODEL dout D (IS=5.1E-9 XTI=-35 EG=1.17 TREF=25 TCV=3.6e-3 N=2 BV=6.38)
rpoly 1 5 100 TC=0.001
rd4 5 9 100 TC=-0.015
d4 10 9 din
d5 10 2 din
.MODEL din D (IS=5.1E-9 XTI=-30 EG=1.17 TREF=25 TCV=1.1e-3 N=1.5 BV=6.25)
.ends esd_nch
************************************************************  
.MODEL  NMOS         NMOS (LEVEL  = 3        TOX    = 1.7E-8
+ RS     = 280E-3          RD     = 0        NSUB   = 1.5E17   
+ KP     = 5.6E-5          UO     = 650             
+ VMAX   = 0               XJ     = 5E-7     KAPPA  = 10E-2
+ ETA    = 1E-4            TPG    = 1  
+ IS     = 0               LD     = 0                             
+ CGSO   = 0               CGDO   = 0        CGBO   = 0 