*Vishay Diode Library

*BY203 20S
* Technology: DISCRETE DIODE
* Device: Rectifier Diode BY 203 20S
* Description:
* Type: Typical (nom)
* Subcircuit: 03.03.1997, by S.Reuter, TM1iCP224-HN
* Remarks:
* Revision: 03.03.1997
* Simulation Model: Macro Model
* Simulator: PSPICE
* Subcircuit Call: Xname n1 n2 BY20320S
* Node Assignments: a=Anode, c=Cathode

.SUBCKT BY203-20S a c
DF a c DFOR
DR a c DREV
.MODEL DFOR D
+ IS = 200p RS = 350m N = 2.5 IKF= 5m
+ CJO=16.4p VJ = 950m M = 355m FC = 700m
+ TT = 780n XTI= 35 EG =1.186
.MODEL DREV D
+ IS = 5n N = 5 XTI= 70 EG =1.186
.ENDS BY203-20S

**********************************
* Copyright:                     *
*   Thomatronik GmbH, Germany    *
*   info@thomatronik.de          *
**********************************
*   PSPICE
*                    anode     cathode
* Reverse direction: node 9 <- node 2
.SUBCKT 5kp58a 9 2
DF 9 90 DFMOD
.MODEL DFMOD D N = 1.8 IS = 2E-009 RS = 0.0201073
+ EG = 1.11 XTI = 3
+ CJO = 4.668E-009 VJ = 0.790339 M = 0.33 FC = 0.5
+ TT = 1E-008 T_MEASURED = 25
* Leakage
RL 9 90 RLMOD 2.92497E+007
.MODEL RLMOD RES TC1 = 0 TC2 = 0 T_MEASURED = 25
* Breakdown
RBD 90 4 0.480548
EBD 4 3 10 20 1
DBD 3 9 DBDMOD
.MODEL DBDMOD D IS = 1E-015 N = 0.5 T_MEASURED = 25 T_ABS=25
IBVC 0 10 0.001
RBVC 10 0 RBVCMOD 67800
.MODEL RBVCMOD RES TC1 = 0.00107 T_MEASURED = 25
RBDX 20 23 0.480548
DBVC 23 0 DBDMOD
IBVD 0 20 0.005
L1 90 2 1E-015
.ENDS

*BY268
* Technology: DISCRETE DIODE
* Device: Rectifier Diode BY 268
* Description:
* Type: Typical (nom)
* Model established: 02.12.1996, by S.Reuter, TM1iC63-HN
* Wafer:
* Remarks:
* Revision: 02.12.1996
* Simulation Model: Macro Model
* Simulator: PSPICE

.SUBCKT BY268 a c
DF a c DFOR
DR a c DREV
.MODEL DFOR D
+ IS = 550p RS = 350m N = 1.3 IKF= 1m
+ CJO=30.6p VJ = 500m M = 400m FC = 700m
+ TT = 1u XTI= 1 EG =1.186

.MODEL DREV D
+ IS = 10n N = 5 XTI= 40 EG =1.186

.ENDS BY268

.SUBCKT bzx384c75 2 1

**************************************
*      Model Generated by MODPEX     *
*Copyright(c) Symmetry Design Systems*
*         All Rights Reserved        *
*    UNPUBLISHED LICENSED SOFTWARE   *
*   Contains Proprietary Information *
*      Which is The Property of      *
*     SYMMETRY OR ITS LICENSORS      *
*Commercial Use or Resale Restricted *
*   by Symmetry License Agreement    *
**************************************
* Model generated on Feb 18, 00
* MODEL FORMAT: PSPICE
*     anode cathode
*node: 2      1
*    Forward Section

D1 2 1 MD1
.MODEL MD1 D IS=4.60908e-14 N=1.10291 XTI=1 RS=1.4423 T_ABS=25
+ CJO=1.5e-11 TT=1e-08
*    Leakage Current
R 1 2 MDR 1.04e+09
.MODEL MDR RES (TC1=0 TC2=0)
*    Breakdown
RZ 2 3 69.9664
IZG 4 3 0.3
R4 4 3 4750
D3 3 4 MD3
.MODEL MD3 D IS=2.5e-12 N=0.386842 XTI=0 EG=0.1 T_ABS=25
D2 5 4 MD2
.MODEL MD2 D IS=2.5e-12 N=1.93574 XTI=0 EG=0.1 T_ABS=25
EV1 1 5 6 0 1
IBV 0 6 0.001
RBV 6 0 MDRBV 74089.9
.MODEL MDRBV RES (TC1=0.00111351)
*-- SPICE3 DIODE MODEL DEFAULT PARAMETER
*  VALUES ARE ASSUMED
*IS=1E-14 RS=0 N=1 TT=0 CJO=0
*VJ=1 M=0.5 EG=1.11 XTI=3 FC=0.5
*KF=0 AF=1 BV=inf IBV=1e-3 TNOM=27
.ENDS bzx384c75

.SUBCKT bzx384c2v7 2 1
**************************************
*      Model Generated by MODPEX     *
*Copyright(c) Symmetry Design Systems*
*         All Rights Reserved        *
*    UNPUBLISHED LICENSED SOFTWARE   *
*   Contains Proprietary Information *
*      Which is The Property of      *
*     SYMMETRY OR ITS LICENSORS      *
*Commercial Use or Resale Restricted *
*   by Symmetry License Agreement    *
**************************************
* Model generated on Feb 18, 00
* MODEL FORMAT: PSPICE
*     anode cathode
*node: 2      1
*    Forward Section
D1 2 1 MD1
.MODEL MD1 D IS=4.60908e-14 N=1.10291 XTI=1 RS=1.4423 T_ABS=25
+ CJO=4.4e-10 TT=1e-08
*    Leakage Current
R 1 2 MDR 100000
.MODEL MDR RES (TC1=0 TC2=0)
*    Breakdown
RZ 2 3 18.5154
IZG 4 3 0.3
R4 4 3 3750
D3 3 4 MD3
.MODEL MD3 D IS=2.5e-12 N=2.6704 XTI=0 EG=0.1 T_ABS=25
D2 5 4 MD2
.MODEL MD2 D IS=2.5e-12 N=10.8887 XTI=0 EG=0.1 T_ABS=25
EV1 1 5 6 0 1
IBV 0 6 0.001
RBV 6 0 MDRBV -1657.55
.MODEL MDRBV RES (TC1=0.00122169)
*-- SPICE3 DIODE MODEL DEFAULT PARAMETER
*  VALUES ARE ASSUMED
*IS=1E-14 RS=0 N=1 TT=0 CJO=0
*VJ=1 M=0.5 EG=1.11 XTI=3 FC=0.5
*KF=0 AF=1 BV=inf IBV=1e-3 TNOM=27
.ENDS bzx384c2v7

.SUBCKT bzx384c10 2 1
**************************************
*      Model Generated by MODPEX     *
*Copyright(c) Symmetry Design Systems*
*         All Rights Reserved        *
*    UNPUBLISHED LICENSED SOFTWARE   *
*   Contains Proprietary Information *
*      Which is The Property of      *
*     SYMMETRY OR ITS LICENSORS      *
*Commercial Use or Resale Restricted *
*   by Symmetry License Agreement    *
**************************************
* Model generated on Feb 18, 00
* MODEL FORMAT: PSPICE
*     anode cathode
*node: 2      1
*    Forward Section
D1 2 1 MD1
.MODEL MD1 D IS=4.60908e-14 N=1.10291 XTI=1 RS=1.4423 T_ABS=25
+ CJO=5.5e-11 TT=1e-08
*    Leakage Current
R 1 2 MDR 3.5e+07
.MODEL MDR RES (TC1=0 TC2=0)
*    Breakdown
IZG 4 2 0.3
R4 4 2 400
D3 2 4 MD3
.MODEL MD3 D IS=2.5e-12 N=0.498475 XTI=0 EG=0.1 T_ABS=25
D2 5 4 MD2
.MODEL MD2 D IS=2.5e-12 N=2.03255 XTI=0 EG=0.1 T_ABS=25
EV1 1 5 6 0 1
IBV 0 6 0.001
RBV 6 0 MDRBV 9216.59
.MODEL MDRBV RES (TC1=0.0005425)
*-- SPICE3 DIODE MODEL DEFAULT PARAMETER
*  VALUES ARE ASSUMED
*IS=1E-14 RS=0 N=1 TT=0 CJO=0
*VJ=1 M=0.5 EG=1.11 XTI=3 FC=0.5
*KF=0 AF=1 BV=inf IBV=1e-3 TNOM=27
.ENDS bzx384c10

* Technology: DISCRETE DEVICE
* Device: Rectifier Diode SF1600
* Description:
* Type: Typical (nom)
* Subcircuit: 19.12.1996, by S.Reuter, TM1iC63-HN
* Remarks:
* Revision: 19.12.1996
* Simulation Model: Macro Model
* Simulator: PSPICE
* Subcircuit Call: Xname n1 n2 SF1600
* Node Assignments: a=Anode, c=Cathode

.SUBCKT SF1600 a c
DF a b DFOR
DR a c DREV
RF b c RFOR 1
.MODEL DFOR D
+ IS = 198p N =1.184 IKF= 50u CJO= 32p
+ VJ = 500m M = 405m FC = 700m TT = 190n
+ XTI= 0 EG =1.186
.MODEL DREV D
+ IS = 7.5n N = 5 XTI= 65 EG =1.186
.MODEL RFOR RES
+ R = 2 TC1= -14m TC2= 100u
.ENDS SF1600

* Technology: DISCRETE DEVICE
* Device: Rectifier Diode SF4004
* Description:
* Type: Typical (nom)
* Subcircuit: 16.12.1996, by S.Reuter, TM1iC63-HN
* Remarks:
* Revision: 16.12.1996
* Simulation Model: Macro Model
* Simulator: PSPICE
* Subcircuit Call: Xname n1 n2 SF4004
* Node Assignments: a=Anode, c=Cathode

.SUBCKT SF4004 a c
DF a c DFOR
DR a c DREV
.MODEL DFOR D
+ IS = 200p RS = 655m N = 1.2 IKF= 100m
+ CJO= 51p VJ = 500m M = 345m FC = 700m
+ TT = 120n XTI= -4 EG =1.186
.MODEL DREV D
+ IS = 10n N = 5 XTI= 50 EG =1.186
.ENDS SF4004

* Technology: DISCRETE DEVICE
* Device: Rectifier Diode SF4007
* Description:
* Type: Typical (nom)
* Subcircuit: 16.12.1996, by S.Reuter, TM1iC63-HN
* Remarks:
* Revision: 16.12.1996
* Simulation Model: Macro Model
* Simulator: PSPICE
* Subcircuit Call: Xname n1 n2 SF4007
* Node Assignments: a=Anode, c=Cathode

.SUBCKT SF4007 a c
DF a c DFOR
DR a c DREV
.MODEL DFOR D
+ IS = 600p RS = 500m N = 1.3 IKF= 1m
+ CJO= 34p VJ = 500m M = 375m FC = 700m
+ TT = 200n XTI= 1 EG =1.186
.MODEL DREV D
+ IS = 10n N = 5 XTI= 50 EG =1.186
.ENDS SF4007

* Technology: DISCRETE DEVICE
* Device: Rectifier Diode SF5404
* Description:
* Type: Typical (nom)
* Subcircuit: 16.12.1996, by S.Reuter, TM1iC63-HN
* Remarks:
* Revision: 16.12.1996
* Simulation Model: Macro Model
* Simulator: PSPICE
* Subcircuit Call: Xname n1 n2 SF5404
* Node Assignments: a=Anode, c=Cathode

.SUBCKT SF5404 a c
DF a c DFOR
DR a c DREV
.MODEL DFOR D
+ IS = 200p RS = 380m N = 1.13 IKF= 110m
+ CJO= 118p VJ = 500m M = 350m FC = 700m
+ TT = 115n XTI= -4 EG =1.186
.MODEL DREV D
+ IS = 20n N = 4 XTI= 50 EG =1.186
.ENDS SF5404

* Technology: DISCRETE DEVICE
* Device: Rectifier Diode SF5408
* Description:
* Type: Typical (nom)
* Subcircuit: 16.12.1996, by S.Reuter, TM1iC63-HN
* Remarks:
* Revision: 16.12.1996
* Simulation Model: Macro Model
* Simulator: PSPICE
* Subcircuit Call: Xname n1 n2 SF5408
* Node Assignments: a=Anode, c=Cathode

.SUBCKT SF5408 a c
DF a c DFOR
DR a c DREV
.MODEL DFOR D
+ IS = 4n RS = 400m N = 1.5 IKF= 5m
+ CJO= 85p VJ = 500 M = 385m FC = 700m
+ TT = 170n XTI= 3 EG =1.186
.MODEL DREV D
+ IS = 10n N = 5 XTI= 50 EG =1.186
.ENDS SF5408

**********************************
* Copyright:                     *
*   Thomatronik GmbH, Germany    *
*   info@thomatronik.de          *
**********************************
*   PSPICE
.model byg10g d is = 1.35385E-009 n = 1.90239 rs = 0.0981815
+ eg = 1.26709 xti = 2.20227 t_measured = 27
+ cjo = 2.44637E-011 vj = 0.7 m = 0.416761 fc = 0.5
+ tt = 9.37195E-006 bv = 440 ibv = 1 af = 1 kf = 0

**********************************
* Copyright:                     *
*   Thomatronik GmbH, Germany    *
*   info@thomatronik.de          *
**********************************
*   PSPICE
.model byg10j d is = 1.35282E-009 n = 1.90244 rs = 0.0981804
+ eg = 1.21242 xti = 3.99803 t_measured = 27
+ cjo = 2.44637E-011 vj = 0.7 m = 0.416761 fc = 0.5
+ tt = 9.37195E-006 bv = 660 ibv = 1 af = 1 kf = 0

**********************************
* Copyright:                     *
*   Thomatronik GmbH, Germany    *
*   info@thomatronik.de          *
**********************************
*   SPICE3
.model byg20d d is = 9.69488E-008 n = 2.68061 rs = 0.132062
+ eg = 1.56188 xti = 2.27121 t_measured = 27
+ cjo = 2.49582E-011 vj = 0.700026 m = 0.415428 fc = 0.5
+ tt = 1.84973E-007 bv = 220 ibv = 1 af = 1 kf = 0

**********************************
* Copyright:                     *
*   Thomatronik GmbH, Germany    *
*   info@thomatronik.de          *
**********************************
*   PSPICE
.model byg21m d is = 1.59184E-007 n = 3.08465 rs = 0.183645
+ eg = 1.76875 xti = 2.70723 t_measured = 27
+ cjo = 2.26216E-011 vj = 0.7 m = 0.45058 fc = 0.5
+ tt = 2.66361E-007 bv = 1100 ibv = 10.0 af = 1 kf = 0

**********************************
* Copyright:                     *
*   Thomatronik GmbH, Germany    *
*   info@thomatronik.de          *
**********************************
*   SPICE3
.model byg22d d is = 1.0911E-007 n = 2.26044 rs = 0.06703
+ eg = 1.27406 xti = 2.18234 t_measured = 27
+ cjo = 6.64321E-011 vj = 0.700169 m = 0.375121 fc = 0.5
+ tt = 4.93261E-008 bv = 220 ibv = 1 af = 1 kf = 0

**********************************
* Copyright:                     *
*   Thomatronik GmbH, Germany    *
*   info@thomatronik.de          *
**********************************
*   SPICE3
.model byg23m d is = 3.20773E-007 n = 3.64897 rs = 0.199313
+ eg = 1.8 xti = 4 t_measured = 27
+ cjo = 2.47755E-011 vj = 0.7 m = 0.434801 fc = 0.5
+ tt = 1.66475E-007 bv = 1100 ibv = 5 af = 1 kf = 0

**********************************
* Copyright:                     *
*   Thomatronik GmbH, Germany    *
*   info@thomatronik.de          *
**********************************
*   PSPICE
.model byg24d d is = 1.54556E-007 n = 2.50238 rs = 0.100189
+ eg = 1.28865 xti = 2.64463 t_measured = 27
+ cjo = 2.39913E-011 vj = 0.7 m = 0.427295 fc = 0.5
+ tt = 3.32951E-007 bv = 220 ibv = 1 af = 1 kf = 0

**********************************
* Copyright:                     *
*   Thomatronik GmbH, Germany    *
*   info@thomatronik.de          *
**********************************
*   PSPICE
.model byg24g d is = 1.4539E-007 n = 2.49188 rs = 0.10028
+ eg = 1.27529 xti = 3.06969 t_measured = 27
+ cjo = 2.39913E-011 vj = 0.7 m = 0.427295 fc = 0.5
+ tt = 3.32951E-007 bv = 440 ibv = 1 af = 1 kf = 0

**********************************
* Copyright:                     *
*   Thomatronik GmbH, Germany    *
*   info@thomatronik.de          *
**********************************
*   PSPICE
.model byg24j d is = 6.60916E-008 n = 2.37701 rs = 0.101453
+ eg = 1.29229 xti = 3.46245 t_measured = 27
+ cjo = 2.39913E-011 vj = 0.7 m = 0.427295 fc = 0.5
+ tt = 3.32951E-007 bv = 660 ibv = 1 af = 1 kf = 0

**********************************
* Copyright:                     *
*   Thomatronik GmbH, Germany    *
*   info@thomatronik.de          *
**********************************
*   PSPICE
.subckt bys11-90 1 2
ddio 1 2 legd
dgr 1 2 grd
.model legd d is = 1E-015 n = 1.0724 rs = 0.272741
+ eg = 2 xti = 4 t_measured = 27
+ cjo = 1.63283E-010 vj = 0.700025 m = 0.50682 fc = 0.5
+ tt = 2.4663E-009 bv = 99 ibv = 0.1 af = 1 kf = 0
.model grd d is = 1E-007 n = 1.33917 rs = 0.207652
+ eg = 1.03188 xti = 3.99987 t_measured = 27
.ends

* Technology: DISCRETE DIODE
* Device: Rectifier Diode BYT 53 G
* Description:
* Type: Typical (nom)
* Model established: 02.12.1996, by S.Reuter, TM1iC63-HN
* Wafer:
* Remarks:
* Revision: 02.12.1996
* Simulation Model: Macro Model
* Simulator: PSPICE

.SUBCKT BYT53G a c
DF a c DFOR
DR a c DREV
.MODEL DFOR D
+ IS = 200p RS = 400m N = 1.2 IKF= 50m
+ CJO= 50p VJ = 500m M = 343m FC = 700m
+ TT = 120n XTI= -2 EG =1.186
.MODEL DREV D
+ IS = 10n N = 5 XTI= 40 EG =1.186
.ENDS BYT53G

* Technology: DISCRETE DIODE
* Device: Rectifier Diode BYT 56 G
* Description:
* Type: Typical (nom)
* Model established: 02.12.1996, by S.Reuter, TM1iC63-HN
* Wafer:
* Remarks:
* Revision: 02.12.1996
* Simulation Model: Macro Model
* Simulator: PSPICE

.SUBCKT BYT56G a c
DF a c DFOR
DR a c DREV
.MODEL DFOR D
+ IS = 600p RS = 370m N = 1.2 IKF= 8m
+ CJO=87.5p VJ = 500m M = 375m FC = 700m
+ TT = 240n XTI= -2 EG =1.186
.MODEL DREV D
+ IS = 50n N = 5 XTI= 75 EG =1.186
.ENDS BYT56G

* Technology: DISCRETE DEVICE
* Device: Zener Diode BZX 55C 3V6
* Type: Typical (nom)
* Model established: 12.11.1996, by S.Reuter, TM1iC63-HN
* Wafer:
* Remarks: Macro model
* Revision:
* Simulator: PSPICE

.SUBCKT BZX55C3V6 a c
DF a c DFOR
DR c a DREV
DB b a DBRE
EB c b POLY(1) d 0 2.35 1
IB 0 d 1m
RB 0 d 1k TC=-0.1m
.MODEL DFOR D
+ IS = 9p RS = 0 N = 1.5 CJO= 252p
+ VJ = 500m M = 345m FC = 700m XTI= 3
+ EG = 1
.MODEL DREV D
+ IS = 100f N = 10 XTI= 3 EG =1.186
.MODEL DBRE D
+ IS = 10f RS = 10 N = 1 XTI= 0
+ EG =1.186
.ENDS BZX55C3V6

* Technology: DISCRETE DEVICE
* Device: Zener Diode BZX 55C 5V1
* Type: Typical (nom)
* Model established: 12.11.1996, by S.Reuter, TM1iC63-HN
* Wafer:
* Remarks: Macro model
* Revision:
* Simulator: PSPICE

.SUBCKT BZX55C5V1 a c
DF a c DFOR
DR c a DREV
DB b a DBRE
EB c b POLY(1) d 0 3.6 1
IB 0 d 1m
RB 0 d 1k TC=3m
.MODEL DFOR D
+ IS = 1p RS = 3.5 N = 1.4 CJO= 178p
+ VJ = 610m M = 335m FC = 700m XTI= 3
+ EG =1.186
.MODEL DREV D
+ IS = 100f N = 30 XTI= 3 EG =1.186
.MODEL DBRE D
+ IS = 10f RS = 6 N = 1 XTI= 0
+ EG =1.186
.ENDS BZX55C5V1

* Technology: DISCRETE DEVICE
* Device: Zener Diode BZX 55C 6V2
* Type: Typical (nom)
* Model established: 12.11.1996, by S.Reuter, TM1iC63-HN
* Wafer:
* Remarks: Macro model
* Revision:
* Simulator: PSPICE

.SUBCKT BZX55C6V2 a c
DF a c DFOR
DR c a DREV
DB b a DBRE
EB c b POLY(1) d 0 4.6 1
IB 0 d 1m
RB 0 d 1k TC=4m
.MODEL DFOR D
+ IS = 32p RS = 0 N = 1.6 CJO= 128p
+ VJ = 685m M = 342m FC = 700m XTI= 3
+ EG =1.186
.MODEL DREV D
+ IS = 100f N = 12 XTI= 3 EG =1.186
.MODEL DBRE D
+ IS = 10f N = 1 XTI= 0 EG =1.186
.ENDS BZX55C6V2

* Technology: DISCRETE DEVICE
* Device: Zener Diode BZX 55C 18
* Type: Typical (nom)
* Model established: 12.11.1996, by S.Reuter, TM1iC63-HN
* Wafer:
* Remarks: Macro model
* Revision:
* Simulator: PSPICE

.SUBCKT BZX55C18 a c
DF a c DFOR
DR c a DREV
DB b a DBRE
EB c b POLY(1) d 0 16.2 1
IB 0 d 1m
RB 0 d 1k TC=19m
.MODEL DFOR D
+ IS = 60p RS = 500m N = 1.6 CJO=43.6p
+ VJ = 700m M = 420m FC = 700m XTI= 3
+ EG =1.186
.MODEL DREV D
+ IS = 100f N = 34 XTI= 3 EG =1.186
.MODEL DBRE D
+ IS = 10f RS = 20 N = 1 XTI= 0
+ EG =1.186
.ENDS BZX55C18

* Technology: DISCRETE DEVICE
* Device: Zener Diode BZX 55C 30
* Type: Typical (nom)
* Model established: 12.11.1996, by S.Reuter, TM1iC63-HN
* Wafer:
* Remarks: Macro model
* Revision:
* Simulator: PSPICE

.SUBCKT BZX55C30 a c
DF a c DFOR
DR c a DREV
DB b a DBRE
EB c b POLY(1) d 0 26.8 1
IB 0 d 1m
RB 0 d 1k TC=27m
.MODEL DFOR D
+ IS = 1p RS = 500m N = 1.4 CJO= 23p
+ VJ = 520m M = 330m FC = 700m XTI= 3
+ EG =1.186
.MODEL DREV D
+ IS = 100f N = 55 XTI= 3 EG =1.186
.MODEL DBRE D
+ IS = 10f RS = 22 N = 1 XTI= 0
+ EG =1.186
.ENDS BZX55C30

* Technology: DISCRETE DEVICE
* Device: Zener Diode BZX 55C 68
* Type: Typical (nom)
* Model established: 12.11.1996, by S.Reuter, TM1iC63-HN
* Wafer:
* Remarks: Macro model
* Revision:
* Simulator: PSPICE

.SUBCKT BZX55C68 a c
DF a c DFOR
DR c a DREV
DB b a DBRE
EB c b POLY(1) d 0 68.8 1
IB 0 d 1m
RB 0 d 1k TC=80m
.MODEL DFOR D
+ IS = 40p RS = 500m N = 1.6 CJO=6.83p
+ VJ = 615m M = 340m FC = 700m XTI= 3
+ EG =1.186
.MODEL DREV D
+ IS = 100f N = 200 XTI= 3 EG =1.186
.MODEL DBRE D
+ IS = 10f RS = 160 N = 1 XTI= 0
+ EG =1.186
.ENDS BZX55C68

**********************************
* Copyright:                     *
*   Thomatronik GmbH, Germany    *
*   info@thomatronik.de          *
**********************************
*   PSPICE
.model es1pd d is = 9E-007 n = 2.23036 rs = 0.0200667
+ eg = 1.11 xti = 3
+ cjo = 1.08695E-011 vj = 3.32186 m = 0.1 fc = 0.5
+ tt = 3.69946E-008 bv = 220 ibv = 10 af = 1 kf = 0 t_measured = 27

**********************************
* Copyright:                     *
*   Thomatronik GmbH, Germany    *
*   info@thomatronik.de          *
**********************************
*   PSPICE
.model esh1pd d is = 1.67013E-007 n = 1.99271 rs = 0.0209271
+ eg = 1.11 xti = 3
+ cjo = 5.7367E-011 vj = 0.447126 m = 0.382179 fc = 0.5
+ tt = 6.16576E-008 bv = 220 ibv = 10 af = 1 kf = 0 t_measured = 27

**********************************
* Copyright:                     *
*   Thomatronik GmbH, Germany    *
*   info@thomatronik.de          *
**********************************
*   PSPICE
.model fes8dt d is = 1.60775E-006 n = 2.10734 rs = 0.0049541
+ eg = 1.17493 xti = 2.25713 t_measured = 27
+ cjo = 1.69997E-010 vj = 0.913778 m = 0.441553 fc = 0.5
+ tt = 3.45282E-008 bv = 220 ibv = 10 af = 1 kf = 0 

**********************************
* Copyright:                     *
*   Thomatronik GmbH, Germany    *
*   info@thomatronik.de          *
**********************************
*   PSPICE
.model gf1g d is = 6.55781E-009 n = 1.85819 rs = 0.0440104
+ eg = 1.11 xti = 3 t_measured = 27
+ cjo = 3.37366E-011 vj = 0.700006 m = 0.385571 fc = 0.5
+ tt = 7.02896E-006 bv = 440 ibv = 0.5 af = 1 kf = 0

**********************************
* Copyright:                     *
*   Thomatronik GmbH, Germany    *
*   info@thomatronik.de          *
**********************************
*   PSPICE
.model gl34g d is = 1E-007 n = 2.32276 rs = 0.0734855
+ eg = 1.11 xti = 3 t_measured = 27
+ cjo = 7.42627E-012 vj = 1.5489 m = 0.393575 fc = 0.5
+ tt = 3.51448E-006 bv = 440 ibv = 0.5 af = 1 kf = 0

**********************************
* Copyright:                     *
*   Thomatronik GmbH, Germany    *
*   info@thomatronik.de          *
**********************************
*   PSPICE
.subckt mbr16h45 1 2
ddio 1 2 legd
dgr 1 2 grd
.model legd d is = 9.88453E-012 n = 0.778853 rs = 0.0326811
+ eg = 0.4 xti = 0.5 t_measured = 27
+ cjo = 2.53146E-009 vj = 0.784914 m = 0.562881 fc = 0.5
+ tt = 2.4663E-010 bv = 49.5 ibv = 10 af = 1 kf = 0
.model grd d is = 1.96552E-007 n = 1.02288 rs = 0.00831646
+ eg = 0.836091 xti = 0.5 t_measured = 27
.ends

**********************************
* Copyright:                     *
*   Thomatronik GmbH, Germany    *
*   info@thomatronik.de          *
**********************************
*   PSPICE
.subckt mbr7h45 1 2
ddio 1 2 legd
dgr 1 2 grd
.model legd d is = 1E-015 n = 0.897853 rs = 0.0177087
+ eg = 1.16472 xti = 0.5 t_measured = 27
+ cjo = 8.52053E-011 vj = 0.7 m = 0.526294 fc = 0.5
+ tt = 2.4663E-010 bv = 49.5 ibv = 10 af = 1 kf = 0
.model grd d is = 7.02401E-007 n = 1.19124 rs = 0.012245
+ eg = 0.757145 xti = 2.02232 t_measured = 27
.ends

**********************************
* Copyright:                     *
*   Thomatronik GmbH, Germany    *
*   info@thomatronik.de          *
**********************************
*   PSPICE
.model rs2d d is = 1E-007 n = 2.27351 rs = 0.0372828
+ eg = 1.11 xti = 3 t_measured = 27
+ cjo = 9.23373E-011 vj = 2.92469 m = 0.555439 fc = 0.5
+ tt = 3.51448E-007 bv = 220 ibv = 0.1 af = 1 kf = 0

**********************************
* Copyright:                     *
*   Thomatronik GmbH, Germany    *
*   info@thomatronik.de          *
**********************************
*   PSPICE
.model rs2j d is = 1E-007 n = 2.27358 rs = 0.0372759
+ eg = 1.11 xti = 3 t_measured = 27
+ cjo = 9.23373E-011 vj = 2.92469 m = 0.555439 fc = 0.5
+ tt = 5.85747E-007 bv = 660 ibv = 0.5 af = 1 kf = 0

**********************************
* Copyright:                     *
*   Thomatronik GmbH, Germany    *
*   info@thomatronik.de          *
**********************************
*   PSPICE
.model rs3d d is = 1.46627E-006 n = 2.68422 rs = 0.0194969
+ eg = 1.35086 xti = 3.30267 t_measured = 27
+ cjo = 7.83388E-011 vj = 0.7 m = 0.330001 fc = 0.5
+ tt = 3.51448E-007 bv = 220 ibv = 5 af = 1 kf = 0

**********************************
* Copyright:                     *
*   Thomatronik GmbH, Germany    *
*   info@thomatronik.de          *
**********************************
*   PSPICE
.model s1pj d is = 2.61156E-009 n = 1.75622 rs = 0.0498075
+ eg = 1.11 xti = 3
+ cjo = 1.20574E-011 vj = 0.5 m = 0.3 fc = 0.5
+ tt = 4.43935E-006 bv = 660 ibv = 1 af = 1 kf = 0 t_measured = 27

.SUBCKT SD103A 1 2
.MODEL SD1 D (
+ N=1.03
+ IS=1.0E-007
+ RS=0.78
+ EG=0.69
+ XTI=2
+ CJO=2.8E-011
+ VJ=0.2
+ M=.34
+ FC=0.5
+ TT=0.8E-008
+ BV=40
+ IBV=0.001
+ KF=0
+ AF=1 )
.MODEL PND D (
+ N=4.55878
+ IS=1E-9
+ RS=0.047093
+ EG=1.11
+ XTI=3 )
.model AD D Is=0.18u N=1100 Rs=.01 
D1 1 2 SD1
D2 1 2 PND
D3 2 1 AD
.ENDS

**********************************
* Copyright:                     *
*   Thomatronik GmbH, Germany    *
*   info@thomatronik.de          *
**********************************
*   PSPICE
.subckt ss1p3l 1 2
ddio 1 2 legd
dgr 1 2 grd
.model legd d is = 9.99967E-005 n = 1.55247 rs = 0.0299696
+ eg = 0.518171 xti = 3.99992 t_measured = 27
+ cjo = 2.79412E-010 vj = 0.7 m = 0.481413 fc = 0.5
+ tt = 1.4427E-009 bv = 33 ibv = 50 af = 1 kf = 0
.model grd d is = 1.00013E-015 n = 1.17777 rs = 0.0149656
+ eg = 1.51115 xti = 0.699844 t_measured = 27
.ends

**********************************
* Copyright:                     *
*   Thomatronik GmbH, Germany    *
*   info@thomatronik.de          *
**********************************
*   PSPICE
.subckt ss1p4l 1 2
ddio 1 2 legd
dgr 1 2 grd
.model legd d is = 9.99998E-005 n = 1.58033 rs = 0.0412076
+ eg = 0.632162 xti = 0.549851 t_measured = 27
+ cjo = 3.6467E-010 vj = 0.7 m = 0.510306 fc = 0.5
+ tt = 1.4427E-009 bv = 44 ibv = 50 af = 1 kf = 0
.model grd d is = 1.00005E-015 n = 1.17555 rs = 0.0382444
+ eg = 1.8 xti = 4 t_measured = 27
.ends

**********************************
* Copyright:                     *
*   Thomatronik GmbH, Germany    *
*   info@thomatronik.de          *
**********************************
*   PSPICE
.subckt ss2p3l 1 2
ddio 1 2 legd
dgr 1 2 grd
.model legd d is = 2.20151E-005 n = 1.30627 rs = 0.0339569
+ eg = 0.581112 xti = 2.01393 t_measured = 27
+ cjo = 3.94127E-010 vj = 0.7 m = 0.514636 fc = 0.5
+ tt = 1.4427E-009 bv = 33 ibv = 10 af = 1 kf = 0
.model grd d is = 1E-015 n = 1.17987 rs = 0.0410314
+ eg = 1.79994 xti = 4 t_measured = 27
.ends

**********************************
* Copyright:                     *
*   Thomatronik GmbH, Germany    *
*   info@thomatronik.de          *
**********************************
*   PSPICE
.subckt ss2p4 1 2
ddio 1 2 legd
dgr 1 2 grd
.model legd d is = 7.07124E-005 n = 1.49383 rs = 0.0453563
+ eg = 0.597561 xti = 1.22745 t_measured = 27
+ cjo = 2.93259E-010 vj = 0.7 m = 0.490878 fc = 0.5
+ tt = 1.4427E-009 bv = 44 ibv = 50 af = 1 kf = 0
.model grd d is = 4.83671E-015 n = 1.15567 rs = 0.0281331
+ eg = 1.79827 xti = 0.491328 t_measured = 27
.ends

**********************************
* Copyright:                     *
*   Thomatronik GmbH, Germany    *
*   info@thomatronik.de          *
**********************************
*   PSPICE
.subckt ssa33l 1 2
ddio 1 2 legd
dgr 1 2 grd
.model legd d is = 1.24809E-005 n = 2.3819 rs = 0.0214449
+ eg = 0.4 xti = 0.5 t_measured = 27
+ cjo = 1.19492E-009 vj = 0.700004 m = 0.638376 fc = 0.5
+ tt = 2.4663E-010 bv = 33 ibv = 1 af = 1 kf = 0
.model grd d is = 2.63933E-006 n = 1.01729 rs = 0.022899
+ eg = 0.679652 xti = 0.5 t_measured = 27
.ends

**********************************
* Model created by               *
*   Uni.Dipl.-Ing. Arpad Buermen *
*   arpad.burmen@ieee.org        *
* Copyright:                     *
*   Thomatronik GmbH, Germany    *
*   info@thomatronik.de          *
**********************************
* May 2001
*   SPICE3
*                    anode     cathode
* Reverse direction: node 1 <- node 9

.SUBCKT bzx55b10 1 9
DF 1 9 DFMOD
.MODEL DFMOD D N = 2 IS = 1.9E-009 RS = 0.36459
+ EG = 1.11 XTI = 3
+ CJO = 6.19198E-011 VJ = 0.747672 M = 0.5 FC = 0.5
+ TT = 1E-008 t_measured= 25
* Leakage
RL 1 9 RLMOD 7.89474E+007 
.MODEL RLMOD RES TC1 = 0 TC2 = 0 t_measured= 25
* Breakdown
ES 9 90 10 20 1
DR1 90 31 DREV1
.MODEL DREV1 D IS = 1E-015 N = 0.108999 RS = 7.09165 t_measured= 25 T_abs=25
VR1 31 1 0.0998299
DR2 90 32 DREV2
.MODEL DREV2 D IS = 1E-015 N = 0.293481 RS = 4.11942 t_measured= 25 T_abs=25
VR2 32 1 0.000553349
VTRIM 20 0 0.210825
IBVC 0 10 0.001
RBVC 10 0 RBVCMOD 10000
.MODEL RBVCMOD RES TC1 = 0.0007 t_measured = 25
.ENDS

**********************************
* Model created by               *
*   Uni.Dipl.-Ing. Arpad Buermen *
*   arpad.burmen@ieee.org        *
* Copyright:                     *
*   Thomatronik GmbH, Germany    *
*   info@thomatronik.de          *
**********************************
* November 2000
*   SPICE3
* 1 ... cathode 1
* 2 ... cathode 2
* 3 ... common anode

.SUBCKT az23c12 1 2 3
X1 3 1 zaz23c12
X2 3 2 zaz23c12
.ENDS

*                    anode     cathode
* Reverse direction: node 1 <- node 9

.SUBCKT zaz23c12 1 9
DF 1 9 DFMOD
.MODEL DFMOD D N = 1.11671 IS = 4.14995E-014 RS = 0.908309
+ EG = 1.08038 XTI = 4.97188
+ CJO = 4.63836E-011 VJ = 1.025 M = 0.5 FC = 0.5
+ TT = 1E-008 t_measured = 25
* Leakage
RL 1 9 RLMOD 1.08E+008
.MODEL RLMOD RES TC1 = 0 TC2 = 0 t_measured = 25
* Breakdown
ES 9 90 10 20 1
DR1 90 31 DREV1
.MODEL DREV1 D IS = 1E-015 N = 0.279499 RS = 5.84645 t_measured = 25 T_abs=25
VR1 31 1 3.64507E-006
DR2 90 32 DREV2
.MODEL DREV2 D IS = 1E-015 N = 0.202696 RS = 8.44014 t_measured = 25 T_abs=25
VR2 32 1 1.77992E-006
VTRIM 20 0 0.191597
IBVC 0 10 0.001
RBVC 10 0 RBVCMOD 12050
.MODEL RBVCMOD RES TC1 = 0.00075 t_measured = 25
.ENDS

**********************************
* Model created by               *
*   Uni.Dipl.-Ing. Arpad Buermen *
*   arpad.burmen@ieee.org        *
* Copyright:                     *
*   Thomatronik GmbH, Germany    *
*   info@thomatronik.de          *
**********************************
*   SPICE3
.subckt bys10-45 1 2
ddio 1 2 legd
dgr 1 2 grd
.model legd d is = 3.85415E-006 n = 1.40358 rs = 0.0557528
+ eg = 0.758858 xti = 2.99661
+ cjo = 3.49905E-010 vj = 0.250479 m = 0.467611 fc = 0.5
+ tt = 1.4427E-009 bv = 49.5 ibv = 10 af = 1 kf = 0
.model grd d is = 1E-015 n = 1.13376 rs = 0.0323937
+ eg = 1.7057 xti = 2.02655
.ends

**********************************
* Model created by               *
*   Uni.Dipl.-Ing. Arpad Buermen *
*   arpad.burmen@ieee.org        *
* Copyright:                     *
*   Thomatronik GmbH, Germany    *
*   info@thomatronik.de          *
**********************************
*   SPICE3
*                    anode     cathode
* Reverse direction: node 1 <- node 9

.SUBCKT bzx384c4v3 1 9
DF 1 9 DFMOD
.MODEL DFMOD D N = 0.874623 IS = 1.65398E-016 RS = 1.21789
+ EG = 1.11 XTI = 3
+ CJO = 1.69695E-010 VJ = 1.31996 M = 0.5 FC = 0.5
+ TT = 1E-008 t_measured = 25
RL 1 9 RLMOD 378788
.MODEL RLMOD RES TC1 = 0 TC2 = 0 t_measured = 25
ES 9 90 10 20 1
DR1 90 31 DREV1
.MODEL DREV1 D IS = 1E-015 N = 12.4304 RS = 115.389 t_measured = 25 T_abs=25
VR1 31 1 0.133335
DR2 90 32 DREV2
.MODEL DREV2 D IS = 1E-015 N = 8.1729 RS = 0.00592624 t_measured = 25 T_abs=25
VR2 32 1 3.73267
VTRIM 20 0 9.67093
IBVC 0 10 0.001
RBVC 10 0 RBVCMOD 4300
.MODEL RBVCMOD RES TC1 = -0.00035 t_measured = 25
.ENDS

****************************************
* (c)2000 Thomatronik GmbH             *
*   info@thomatronik.de                *
*                                      *
* Author: Arpad Buermen                *
*   Arpad.Burmen@ieee.org              *
*   Arpad.Buermen@fe.uni-lj.si         *
****************************************
* Version: SPICE3
*                    anode     cathode
* Reverse direction: node 1 <- node 2

.SUBCKT bzx55c24 1 2
DF 1 2 DFMOD
.MODEL DFMOD D(N=1.19275 IS=2.18787E-013 RS=1.03072 EG=1.11167 XTI=3.05573
+ TT=1E-006 CJO=2.77E-011 VJ=0.6 M=0.33)
* Leakage
RL 1 2 RLMOD 1.8E+008
.MODEL RLMOD RES(TC1=0.0078 TC2=0 t_measured=25)
* Breakdown
EZ 2 3 5 0 1
R1 3 4 0.0500369
VD1 10 4 0.92297
D1 10 1 DMOD1
.MODEL DMOD1 D(IS=1e-12 N=1.44285 RS=18.4313 t_measured=27 T_abs=27)
VD2 20 4 0.377868
D2 20 1 DMOD2
.MODEL DMOD2 D(IS=1e-12 N=0.997121 RS=273.693 t_measured=27 T_abs=27)
I1 0 5 0.001
RVZ 5 0 RVZMOD 24000
.MODEL RVZMOD RES(TC1=0.00065 TC2=0 t_measured=25)
.ENDS

****************************************
* (c)2000 Thomatronik GmbH             *
*   info@thomatronik.de                *
*                                      *
* Author: Arpad Buermen                *
*   Arpad.Burmen@ieee.org              *
*   Arpad.Buermen@fe.uni-lj.si         *
****************************************
* Version: SPICE3
*                    anode     cathode
* Reverse direction: node 1 <- node 2

.SUBCKT bzx55c3v9 1 2
DF 1 2 DFMOD
.MODEL DFMOD D(N=1.19275 IS=2.18787E-013 RS=1.03072 EG=1.11167 XTI=3.05573
+ TT=1E-006 CJO=2.98E-010 VJ=2.88 M=0.33)
* Leakage
RL 1 2 RLMOD 500000
.MODEL RLMOD RES(TC1=0.0076 TC2=0 t_measured=25)
* Breakdown
EZ 2 3 9 0 1
VZC 4 3 9.22476
D1 4 5 DMOD1
.MODEL DMOD1 D(IS=1e-12 N=16.0012 RS=1.00186 t_measured=27 T_abs=27)
VD 6 5 0.000690018
D2 6 1 DMOD2
.MODEL DMOD2 D(IS=1e-12 N=1.00517 t_measured=27 T_abs=27)
ID 5 1 0.161192
RD 5 1 0.0847951
I1 0 9 0.001
RVZ 9 0 RVZMOD 3900
.MODEL RVZMOD RES(TC1=-0.0005 TC2=0 t_measured=25)
.ENDS

****************************************
* (c)2000 Thomatronik GmbH             *
*   info@thomatronik.de                *