*DEVICE=M160SG,D
* M160SG D model
.MODEL M160SG D
+ IS=100.00E-9
+ N=2.3500
+ RS=2.4000
+ CJO=450.00E-15
+ VJ=28.440
+ ISR=100.00E-12
+ BV=20.000E3
+ IBV=100.00E-6
+ TT=3.0000E-6

*DEVICE=Z50FF5,D
* Z50FF5 D model
.MODEL Z50FF5 D
+ IS=500.00E-9
+ N=22.300
+ RS=.7
+ CJO=22.760E-12
+ VJ=6.4100
+ ISR=100.00E-12
+ BV=6.0000E3
+ IBV=100.00E-6
+ TT=50.000E-9

*DEVICE=Z50FF3,D
* Z50FF3 D model
.MODEL Z50FF3 D
+ IS=500.00E-9
+ N=35
+ RS=1.5000
+ CJO=18.800E-12
+ VJ=8.7000
+ ISR=100.00E-12
+ BV=6.0000E3
+ IBV=100.00E-6
+ TT=50.000E-9

*DEVICE=Z25SG,D
* Z25SG D model
.MODEL Z25SG D
+ IS=500.00E-9
+ N=2.2000
+ RS=5.0000E-3
+ CJO=33.690E-12
+ VJ=4.4700
+ ISR=100.00E-12
+ BV=3.6000E3
+ IBV=100.00E-6
+ TT=3.0000E-6

*DEVICE=Z25S,D
* Z25S D model
.MODEL Z25S D
+ IS=500.00E-9
+ N=8.5000
+ RS=40.000E-3
+ CJO=30.100E-12
+ VJ=4.9200
+ ISR=100.00E-12
+ BV=3.6000E3
+ IBV=100.00E-6
+ TT=3.0000E-6

*DEVICE=Z10SG,D
* Z10SG D model
.MODEL Z10SG D
+ IS=500.00E-9
+ N=2.0500
+ RS=15.000E-3
+ CJO=158.10E-12
+ VJ=.76
+ ISR=100.00E-12
+ BV=1.1000E3
+ IBV=100.00E-6
+ TT=3.0000E-6

*DEVICE=z10ff5,d
* z10ff5 d model
.model Z10FF5 D
+ IS=500.00E-9
+ N=4
+ RS=.13
+ CJO=260.20E-12
+ VJ=.35
+ ISR=100.00E-12
+ BV=1.1000E3
+ IBV=100.00E-6
+ TT=50.0000E-9

*DEVICE=z50sg,d
* z50sg d model
.model Z50SG D
+ IS=500.00E-9
+ N=13.200
+ RS=5.0000E-3
+ CJO=20.550E-12
+ VJ=8.0900
+ ISR=100.00E-12
+ BV=6.0000E3
+ IBV=100.00E-6
+ TT=3000.000E-9

*DEVICE=Z100UF,D
* Z100UF D model
.MODEL Z100UF D
+ IS=500.00E-9
+ N=35
+ RS=.25
+ CJO=9.7500E-9
+ VJ=7.7700
+ ISR=100.00E-12
+ BV=12.000E3
+ IBV=100.00E-6
+ TT=100.00E-9

*DEVICE=Z20FF3,D
* Z20FF3 D model
.MODEL Z20FF3 D
+ IS=500.00E-9
+ N=10
+ RS=.36
+ CJO=57.790E-12
+ VJ=2.16
+ ISR=100.00E-12
+ BV=2.2000E3
+ IBV=100.00E-6
+ TT=30.000E-9

*DEVICE=1N5623,D
* 1N5623 D model
.MODEL 1N5623 D
+ IS=2.50000E-7
+ N=2.8
+ RS=80.000E-3
+ CJO=30.650E-12
+ VJ=.69
+ ISR=100.00E-12
+ BV=1.1000E3
+ IBV=100.00E-6
+ TT=500.0000E-9

*DEVICE=Z100S,D
* Z100S D model
.MODEL Z100S D
+ IS=500.00E-9
+ N=25
+ RS=45.000E-3
+ CJO=9.8500E-12
+ VJ=8.3100
+ ISR=100.00E-12
+ BV=12.000E3
+ IBV=100.00E-6
+ TT=3000E-9

*DEVICE=Z25UF,D
* Z25UF D model
.MODEL Z25UF D
+ IS=500.00E-9
+ N=11
+ RS=.12
+ CJO=29.260E-12
+ VJ=2.5300
+ ISR=100.00E-12
+ BV=3.6000E3
+ IBV=100.00E-6
+ TT=100.00E-9

*DEVICE=Z10FF3,D
* Z10FF3 D model
.MODEL Z10FF3 D
+ IS=500.00E-9
+ N=7.6000
+ RS=.5
+ CJO=74.770E-12
+ VJ=1.5300
+ ISR=100.00E-12
+ BV=1.5000E3
+ IBV=100.00E-6
+ TT=100.00E-9

*DEVICE=z100FF3,D
* Z100FF3 D model
.MODEL Z100FF3 D
+ IS=500.00E-9
+ N=70
+ RS=2.6
+ CJO=8.4900E-12
+ VJ=20.30
+ ISR=100.00E-12
+ BV=12.000E3
+ IBV=100.00E-6
+ TT=30.0000E-9

*DEVICE=z150UFG,D
* Z150UFG D model
.MODEL Z150UFG D
+ IS=500.00E-9
+ N=3
+ RS=1.6
+ CJO=5.9900E-12
+ VJ=21.33
+ ISR=100.00E-12
+ BV=18.000E3
+ IBV=100.00E-6
+ TT=100.0000E-9

*DEVICE=z100sg, D
.MODEL Z100SG D
+ IS=500.00E-9
+ N=26
+ RS=.005
+ CJO=10.4100E-12
+ VJ=13.55
+ ISR=100.00E-12
+ BV=12.000E3
+ IBV=100.00E-6
+ TT=3000.0000E-9

*DEVICE=x25sg, D
.MODEL X25SG D
+ IS=500.00E-9
+ N=2.35
+ RS=.3
+ CJO=6.500E-12
+ VJ=4.25
+ ISR=100.00E-12
+ BV=3.6000E3
+ IBV=100.00E-6
+ TT=3000.0000E-9

*DEVICE=x20ff3, D
.MODEL X20FF3 D
+ IS=2.50E-7
+ N=9
+ RS=.8
+ CJO=8.4300E-12
+ VJ=3.11
+ ISR=100.00E-12
+ BV=2.2000E3
+ IBV=100.00E-6
+ TT=30.0000E-9

*DEVICE=x200ufg, D
.MODEL X200UFG D
+ IS=2.500E-7
+ N=3
+ RS=9
+ CJO=1.0100E-12
+ VJ=23.44
+ ISR=100.00E-12
+ BV=22.000E3
+ IBV=100.00E-6
+ TT=100.0000E-9

*DEVICE=X150UFG,D
* X150UFG D model
.MODEL X150UFG D
+ IS=250.00E-9
+ N=2.8000
+ RS=8
+ CJO=1.2300E-12
+ VJ=19.170
+ ISR=100.00E-12
+ BV=18.000E3
+ IBV=100.00E-6
+ TT=30.000E-9

*DEVICE=X150SG,D
* X150SG D model
.MODEL X150SG D
+ IS=25.000E-6
+ N=2.3500
+ RS=.98
+ CJO=1.1900E-12
+ VJ=26.180
+ ISR=100.00E-12
+ BV=17.000E3
+ IBV=100.00E-6
+ TT=100.00E-9

*DEVICE=X150FF3,D
* X150FF3 D model
.MODEL X150FF3 D
+ IS=250.00E-9
+ N=90
+ RS=.8
+ CJO=980.00E-15
+ VJ=16.830
+ ISR=100.00E-12
+ BV=17.000E3
+ IBV=100.00E-6
+ TT=30.000E-9

*DEVICE=X10FF5,D
* X10FF5 D model
.MODEL X10FF5 D
+ IS=250.00E-9
+ N=5
+ RS=.25
+ CJO=66.030E-12
+ VJ=.27
+ ISR=100.00E-12
+ BV=1.1000E3
+ IBV=100.00E-6
+ TT=50.000E-9

*DEVICE=X10FF3,D
* X10FF3 D model
.MODEL X10FF3 D
+ IS=250.00E-9
+ N=11
+ RS=.383
+ CJO=16.470E-12
+ VJ=2.2600
+ ISR=100.00E-12
+ BV=1.1000E3
+ IBV=100.00E-6
+ TT=30.000E-9

*DEVICE=X100FF3,D
* X100FF3 D model
.MODEL X100FF3 D
+ IS=250.00E-9
+ N=70
+ RS=6
+ CJO=1.3800E-12
+ VJ=16.790
+ ISR=100.00E-12
+ BV=12.000E3
+ IBV=100.00E-6
+ TT=30.000E-9

*DEVICE=X100SG,D
* X100SG D model
.MODEL X100SG D
+ IS=250.00E-9
+ N=2.3500
+ RS=.9
+ CJO=1.5000E-12
+ VJ=19.790
+ ISR=100.00E-12
+ BV=12.000E3
+ IBV=100.00E-6
+ TT=3.0000E-6

*DEVICE=M50SG,D
* M50SG D model
.MODEL M50SG D
+ IS=100.00E-9
+ N=14.400
+ RS=1
+ CJO=1.4500E-12
+ VJ=7.3100
+ ISR=100.00E-12
+ BV=6.0000E3
+ IBV=100.00E-6
+ TT=3.0000E-6

*DEVICE=M50FF3,D
* M50FF3 D model
.MODEL M50FF3 D
+ IS=100.00E-9
+ N=40
+ RS=20
+ CJO=1.2500E-12
+ VJ=9.6400
+ ISR=100.00E-12
+ BV=6.0000E3
+ IBV=100.00E-6
+ TT=30.000E-9

*DEVICE=M25SG,D
* M25SG D model
.MODEL M25SG D
+ IS=100.00E-9
+ N=2.4000
+ RS=.3
+ CJO=2.2200E-12
+ VJ=6.7600
+ ISR=100.00E-12
+ BV=3.6000E3
+ IBV=100.00E-6
+ TT=3.0000E-6

*DEVICE=M160UFG,D
* M160UFG D model
.MODEL M160UFG D
+ IS=100.00E-9
+ N=4.4000
+ RS=13.800
+ CJO=430.00E-15
+ VJ=19.220
+ ISR=100.00E-12
+ BV=20.000E3
+ IBV=100.00E-6
+ TT=70.000E-9

*DEVICE=X50SG,D
* X50SG D model
.MODEL X50SG D
+ IS=250.00E-9
+ N=2.3500
+ RS=1.5000
+ CJO=3.8700E-12
+ VJ=6.4100
+ ISR=100.00E-12
+ BV=6.0000E3
+ IBV=100.00E-6
+ TT=3.0000E-6

*DEVICE=X50FF3,D
* X50FF3 D model
.MODEL X50FF3 D
+ IS=250.00E-9
+ N=38
+ RS=2.2000
+ CJO=3.1000E-12
+ VJ=8.6600
+ ISR=100.00E-12
+ BV=6.0000E3
+ IBV=100.00E-6
+ TT=3.0000E-6

*DEVICE=M10UFG,D
* M10UFG D model
.MODEL M10UFG D
+ IS=100.00E-9
+ N=4.2000
+ RS=.4
+ CJO=9.5400E-12
+ VJ=1.2300
+ ISR=100.00E-12
+ BV=1.1000E3
+ IBV=100.00E-6
+ TT=70.000E-9

*DEVICE=M100FF3,D
* M100FF3 D model
.MODEL M100FF3 D
+ IS=100.00E-9
+ N=70
+ RS=30
+ CJO=660.00E-15
+ VJ=15.520
+ ISR=100.00E-12
+ BV=12.000E3
+ IBV=100.00E-6
+ TT=30.000E-9

*DEVICE=M100SG,D
* M100SG D model
.MODEL M100SG D
+ IS=100.00E-9
+ N=28.800
+ RS=.3
+ CJO=770.00E-15
+ VJ=15.920
+ ISR=100.00E-12
+ BV=12.000E3
+ IBV=100.00E-6
+ TT=3.0000E-6

*DEVICE=k50uf,D
* k50uf D model
.MODEL k50uf D
+ IS=1.0000E-6
+ N=16
+ RS=.15
+ CJO=68.460E-12
+ VJ=4.2700
+ ISR=100.00E-12
+ BV=6.0000E3
+ IBV=100.00E-6
+ TT=100.00E-9

*DEVICE=K25UF,D
* K25UF D model
.MODEL K25UF D
+ IS=1.0000E-6
+ N=11
+ RS=80.000E-3
+ CJO=102.50E-12
+ VJ=3.2700
+ ISR=100.00E-12
+ BV=3.6000E3
+ IBV=100.00E-6
+ TT=100.00E-9

*DEVICE=K25S,D
* K25S D model
.MODEL K25S D
+ IS=1.0000E-6
+ N=8.2000
+ RS=2.0000E-3
+ CJO=103.90E-12
+ VJ=3.5100
+ ISR=100.00E-12
+ BV=3.6000E3
+ IBV=100.00E-6
+ TT=3.0000E-6

*DEVICE=K100UF,D
* K100UF D model
.MODEL K100UF D
+ IS=1.0000E-6
+ N=35
+ RS=.1
+ CJO=34.760E-12
+ VJ=8.7500
+ ISR=100.00E-12
+ BV=12.000E3
+ IBV=100.00E-6
+ TT=100.00E-9

*DEVICE=FP100F,D
* FP100F D model
.MODEL FP100F D
+ IS=500.00E-9
+ N=52.800
+ RS=.36
+ CJO=17.620E-12
+ VJ=3.2900
+ ISR=100.00E-12
+ BV=14.400E3
+ IBV=100.00E-6
+ TT=70.000E-9

*DEVICE=D90U18R,D
* D90U18R D model
.MODEL D90U18R D
+ IS=500.00E-9
+ N=10
+ RS=.3
+ CJO=78.800E-12
+ VJ=.73
+ ISR=100.00E-12
+ BV=1.8000E3
+ IBV=100.00E-6
+ TT=70.000E-9

*DEVICE=D90U10,D
* D90U10 D model
.MODEL D90U10 D
+ IS=500.00E-9
+ N=4.3000
+ RS=.1
+ CJO=157.60E-12
+ VJ=.73
+ ISR=100.00E-12
+ BV=1.1000E3
+ IBV=100.00E-6
+ TT=70.000E-9

*DEVICE=D90S18R,D
* D90S18R D model
.MODEL D90S18R D
+ IS=500.00E-9
+ N=8.2000
+ RS=.101
+ CJO=78.800E-12
+ VJ=.73
+ ISR=100.00E-12
+ BV=1.8000E3
+ IBV=100.00E-6
+ TT=3.0000E-6

*DEVICE=D90S10,D
* D90S10 D model
.MODEL D90S10 D
+ IS=5.00E-7
+ N=4.3000
+ RS=25.000E-3
+ CJO=157.60E-12
+ VJ=.74
+ ISR=100.00E-12
+ BV=1.1000E3
+ IBV=100.00E-6
+ TT=30.000E-9

*DEVICE=D90FF18R,D
* D90FF18R D model
.MODEL D90FF18R D
+ IS=5.00E-7
+ N=12
+ RS=.3
+ CJO=78.800E-12
+ VJ=.73
+ ISR=100.00E-12
+ BV=1.8000E3
+ IBV=100.00E-6
+ TT=70.000E-9

*DEVICE=D90FF06,D
* D90FF06 D model
.MODEL D90FF06 D
+ IS=5.00E-7
+ N=4.3000
+ RS=25.000E-3
+ CJO=85.690E-12
+ VJ=.59
+ ISR=100.00E-12
+ BV=660
+ IBV=100.00E-6
+ TT=30.000E-9

*DEVICE=D40U18R,D
* D40U18R D model
.MODEL D40U18R D
+ IS=1.00E-7
+ N=17.600
+ RS=1.6000
+ CJO=4.7700E-12
+ VJ=1.2300
+ ISR=100.00E-12
+ BV=2.2000E3
+ IBV=100.00E-6
+ TT=70.000E-9

*DEVICE=1N6619,D
* 1N6619 D model
.MODEL 1N6619 D
+ IS=5.00E-7
+ N=3.2000
+ RS=50.000E-3
+ CJO=164.60E-12
+ VJ=.5
+ ISR=100.00E-12
+ BV=1.1000E3
+ IBV=100.00E-6
+ TT=70.000E-9

*DEVICE=1N6615,D
* 1N6615 D model
.MODEL 1N6615 D
+ IS=5.00E-7
+ N=3.4000
+ RS=.11
+ CJO=38.420E-12
+ VJ=.3905
+ ISR=100.00E-12
+ BV=1.1000E3
+ IBV=100.00E-6
+ TT=70.000E-9

*DEVICE=1N6535,D
* 1N6535 D model
.MODEL 1N6535 D
+ IS=1.00E-7
+ N=54
+ RS=14
+ CJO=680.00E-15
+ VJ=16.150
+ ISR=100.00E-12
+ BV=12.000E3
+ IBV=100.00E-6
+ TT=70.000E-9

*DEVICE=1N6533,D
* 1N6533 D model
.MODEL 1N6533 D
+ IS=1.00E-7
+ N=22.8
+ RS=3.8000
+ CJO=1.4400E-12
+ VJ=7.1700
+ ISR=100.00E-12
+ NR=22.800
+ BV=6.0000E3
+ IBV=100.00E-6
+ TT=70.000E-9

*DEVICE=1N6531,D
* 1N6531 D model
.MODEL 1N6531 D
+ IS=1.00E-7
+ N=4
+ RS=1.5000
+ CJO=1.9200E-12
+ VJ=6.2100
+ ISR=100.00E-12
+ BV=3.6000E3
+ IBV=100.00E-6
+ TT=70.000E-9

*DEVICE=1N6529,D
* 1N6529 D model
.MODEL 1N6529 D
+ IS=1.00E-7
+ N=8.4000
+ RS=.8
+ CJO=4.7700E-12
+ VJ=1.2300
+ ISR=100.00E-12
+ BV=2.2000E3
+ IBV=100.00E-6
+ TT=70.000E-9

*DEVICE=1N6527,D
* 1N6527 D model
.MODEL 1N6527 D
+ IS=250.00E-9
+ N=38.400
+ RS=1.8000
+ CJO=1.4500E-12
+ VJ=17.060
+ ISR=100.00E-12
+ BV=12.000E3
+ IBV=100.00E-6
+ TT=70.000E-9

*DEVICE=1N6525,D
* 1N6525 D model
.MODEL 1N6525 D
+ IS=2.500E-7
+ N=20.400
+ RS=.9
+ CJO=3.1000E-12
+ VJ=6.7300
+ ISR=100.00E-12
+ BV=6.0000E3
+ IBV=100.00E-6
+ TT=70.000E-9

*DEVICE=1N6523,D
* 1N6523 D model
.MODEL 1N6523 D
+ IS=2.500E-7
+ N=16
+ RS=.48
+ CJO=4.7700E-12
+ VJ=3.8100
+ ISR=100.00E-12
+ BV=3.6000E3
+ IBV=100.00E-6
+ TT=70.000E-9

*DEVICE=1N6521,D
* 1N6521 D model
.MODEL 1N6521 D
+ IS=2.500E-7
+ N=3.5000
+ RS=.26
+ CJO=11.940E-12
+ VJ=1.5700
+ ISR=100.00E-12
+ BV=2.2000E3
+ IBV=100.00E-6
+ TT=70.000E-9

*DEVICE=1N6519,D
* 1N6519 D model
.MODEL 1N6519 D
+ IS=5.00E-7
+ N=3
+ RS=.68
+ CJO=8.8700E-12
+ VJ=14.030
+ ISR=100.00E-12
+ BV=12.000E3
+ IBV=100.00E-6
+ TT=70.000E-9

*DEVICE=1N6517,D
* 1N6517 D model
.MODEL 1N6517 D
+ IS=5.00E-7
+ N=19.200
+ RS=.36
+ CJO=22.760E-12
+ VJ=6.4100
+ ISR=100.00E-12
+ BV=6.0000E3
+ IBV=100.00E-6
+ TT=70.000E-9

*DEVICE=1N6515,D
* 1N6515 D model
.MODEL 1N6515 D
+ IS=5.00E-7
+ N=3.3000
+ RS=.18
+ CJO=35.240E-12
+ VJ=3.2900
+ ISR=100.00E-12
+ BV=3.6000E3
+ IBV=100.00E-6
+ TT=70.000E-9

*DEVICE=1N6513,D
* 1N6513 D model
.MODEL 1N6513 D
+ IS=5.00E-7
+ N=7.2000
+ RS=.14
+ CJO=56.640E-12
+ VJ=1.6700
+ ISR=100.00E-12
+ BV=2.2000E3
+ IBV=100.00E-6
+ TT=70.000E-9

*DEVICE=1N5622,D
* 1N5622 D model
.MODEL 1N5622 D
+ IS=5.00E-7
+ N=2.2500
+ RS=45.000E-3
+ CJO=44.100E-12
+ VJ=.97
+ ISR=100.00E-12
+ BV=1.1000E3
+ IBV=100.00E-6
+ TT=2.0000E-6

*DEVICE=1N5554,D
* 1N5554 D model
.MODEL 1N5554 D
+ IS=500.00E-9
+ N=2.1000
+ RS=10.000E-3
+ CJO=122.20E-12
+ VJ=.8
+ ISR=100.00E-12
+ BV=880
+ IBV=100.00E-6
+ TT=500.00E-9

*DEVICE=1N5552,D
* 1N5552 D model
.MODEL 1N5552 D
+ IS=5.00E-7
+ N=2.1000
+ RS=10.000E-3
+ CJO=122.20E-12
+ VJ=.8
+ ISR=100.00E-12
+ BV=880
+ IBV=100.00E-6
+ TT=500.00E-9

*DEVICE=1N5420,D
* 1N5420 D model
.MODEL 1N5420 D
+ IS=5.00E-7
+ N=2.1000
+ RS=25.000E-3
+ CJO=136.10E-12
+ VJ=.79
+ ISR=100.00E-12
+ BV=660
+ IBV=100.00E-6
+ TT=400.00E-9
*$
