*ZETEX  BC80716 Spice model    Last revision  27/2/03
*
.MODEL BC80716 PNP IS =3.2E-14 BF =170 VAF=45 NF =0.977 IKF=1.25 ISE=7E-15
+NE =1.35 BR =50 VAR=50 NR =.986 IKR=0.15 ISC=0.9E-14 NC =1.08 RB =0.16
+RE =0.195 RC =0.185 CJE=104E-12 TF =0.7E-9 CJC=30.5E-12 TR =3E-9 VJC=0.395
+MJC=0.415
*
*ZETEX  BC80816 Spice model    Last revision  27/2/03
*
.MODEL BC80816 PNP IS =3.2E-14 BF =170 VAF=45 NF =0.977 IKF=1.25 ISE=7E-15
+NE =1.35 BR =50 VAR=50 NR =.986 IKR=0.15 ISC=0.9E-14 NC =1.08 RB =0.16
+RE =0.195 RC =0.185 CJE=104E-12 TF =0.7E-9 CJC=30.5E-12 TR =3E-9 VJC=0.395
+MJC=0.415
*
*ZETEX  BSS84  Spice model    Last revision   3/5/00
*              
.SUBCKT BSS84_ZX 3 4 5
* NODES: DRAIN GATE SOURCE
M1 3 2 5 5 MOD1
RG 4 2 167
RL 3 5 50E6
C1 2 5 26P
C2 3 2 4P 
D1 3 5 DIODE1
*
.MODEL MOD1 PMOS VTO=-1.709 RS=3.091 RD=0.979 IS=1E-15 KP=0.146
+CBD=12P PB=1
.MODEL DIODE1 D IS=1.072E-13 RS=0.527 N=1.077
.ENDS BSS84_ZX
*
*ZETEX  FMMT489  Spice model   Last revision 13/10/93
*
.MODEL FMMT489 NPN IS =1.04E-13  BF =195 IKF =1.9 VAF =160
+              ISE=1.83E-14 NE =1.35 NR =1.00 BR =140 IKR=0.5
+              VAR=30 ISC=6.00E-12 NC =1.5 RB =0.3 RE =0.065
+              RC =0.11 CJC=25.37E-12 MJC=0.3281 VJC=0.464
+              CJE=122E-12 MJE=0.3412 VJE=0.7631 TF =0.86E-9
+              TR =12.5E-9
*
*
*ZETEX FMMT497 Spice model   Last Revision 8/2/02
*
.MODEL FMMT497 NPN IS =5E-14 NF =1
+BF =250 IKF=500E-3 VAF=1020 ISE=2.5E-14 NE =1.38
+RCO=60 GAMMA=10E-7 NR =1 BR =5 IKR=0 VAR=55 ISC=5e-12
+NC =1.31 RB =3 RE =0.05 RC =0.05
+CJC=10.95E-12 MJC=0.265 VJC=0.3905 CJE=125.2E-12 
+TF =0.6E-9 TR =0.66e-6 
*
*
*ZETEX  FMMT5179 Spice model   Last revision 14/3/97
*
.MODEL FMMT5179 NPN IS=5.6E-16  BF=133 IKF=2.5E-2 VAF=40
+              ISE=6.367E-15 NE=1.75 NR=0.99 BR=8 IKR=1E-2 VAR=6
+              ISC=1E-15 NC=1.167 RB=5 RE=0.65 RC=1.8
+              CJC=1.197E-12 MJC=0.2588 VJC=0.5617 CJE=1.012E-12
+              MJE=0.4496 VJE=1.195 RBM=0.5 IRB=5E-4
+              TF=6E-11 TR=40.5E-9 ITF=2.5 XTF=1000
*
*ZETEX  FMMT549 Spice model   Last revision 11/10/94
*
.MODEL FMMT549 PNP IS =1.3E-13 BF =200 IKF=1.8 VAF=104
+              ISE=6E-14 NE =1.45 BR =50 IKR=0.2 VAR=8
+              ISC=3.5E-14 NC =1.23 RB =0.7 RE =0.063 RC =0.122
+              CJC=55E-12 MJC=0.3541 VJC=0.1928 CJE=120.9E-12
+              MJE=.4685 VJE=1.041 TF =0.51E-9 TR =3.6E-9
*
*
*ZETEX  FMMT589 Spice model   Last revision 11/10/94
*
.MODEL FMMT589 PNP IS =1.3E-13 BF =200 IKF=1.8 VAF=104
+              ISE=6E-14 NE =1.45 BR =50 IKR=0.2 VAR=8
+              ISC=3.5E-14 NC =1.23 RB =0.7 RE =0.063 RC =0.122
+              CJC=55E-12 MJC=0.3541 VJC=0.1928 CJE=120.9E-12
+              MJE=.4685 VJE=1.041 TF =0.51E-9 TR =3.6E-9
*
*
*ZETEX  FMMT617 Spice model   Last revision 19/4/94
*
.MODEL FMMT617  NPN IS =5.92E-13 BF =500 IKF=5 VAF=34.6
+               ISE=1.27E-13 NE =1.425 NR =1 BR =280 IKR=2 VAR=12.25
+               ISC=6.138E-13 NC =1.46 RB =0.1 RE =0.025 RC =0.017
+               CJC=76E-12 MJC=0.2981 VJC=0.4414 CJE=230E-12
+               MJE=0.3569 VJE=0.7042 TF =1.12E-9 TR =2.15E-9
*
*
*ZETEX  FMMT618 Spice model   Last revision 8/7/93
*
.MODEL FMMT618  NPN IS =5.611E-13 NF =1.0022 BF =480 IKF=4.6 VAF=51
+               ISE=1.73E-13 NE =1.4 NR =1.0002 BR =200 IKR=3 VAR=25
+               ISC=7.3152E-13 NC =1.47 RB =0.032 RE =0.027 RC =0.025
+               CJC=59E-12 MJC=0.2651 VJC=0.3051 CJE=216E-12
+               TF =0.95E-9 TR =2.25E-9
*
*
*ZETEX  FMMT619 Spice model   Last revision 8/7/93
*
.MODEL FMMT619  NPN IS =5.8032E-13 NF =1.0027 BF =485 IKF=2.2 VAF=84
+               ISE=1.5933E-13 NE =1.4148 NR =1.0006 BR =110 IKR=1.4
+               VAR=51 ISC=5E-12 NC =1.45 RB =0.042 RE =0.033
+               RC =0.0375 CJC=40E-12 MJC=0.3708 VJC=0.4347 CJE=217E-12
+               TF =0.78E-9 TR =9E-9
*
*
*ZETEX  FMMT624 Spice model   Last revision 12/7/93
*
.MODEL FMMT624  NPN IS =6.855E-13 NF =1.0037 BF =540 IKF=0.95 VAF=231
+               ISE=2.23E-13 NE =1.4195 NR =1.0024 BR =100 IKR=2
+               VAR=61 ISC=3E-12 NC =1.2276 RB =0.036 RE =0.065
+               RC =0.1 CJC=28E-12 MJC=0.4348 VJC=0.4934 CJE=207E-12
+               TF =0.85E-9 TR =49E-9
*
*
*ZETEX  FMMT625 Spice model   Last revision 13/7/93
*
.MODEL FMMT625  NPN IS =6.2024E-13 NF =1.0037 BF =450 IKF=0.6 VAF=428
+               ISE=2.3242E-13 NE =1.4689 NR =1.0033 BR =250 IKR=1.7
+               VAR=73 ISC=7.66E-13 NC =1.1546 RB =0.036 RE =0.090
+               RC =0.143 CJC=24.5E-12 MJC=0.4246 VJC=0.4425 CJE=210E-12
+               TF =0.99E-9 TR =60E-9
*
*
*ZETEX  FMMT717  Spice model   Last revision 25/3/94
*
.MODEL FMMT717 PNP IS =5.5E-13  BF =500 IKF =3 VAF =14.93
+              ISE=1.75E-13 NE =1.5 NR =1.00 BR =280 IKR=0.3
+              VAR=5.64 ISC=6.01E-13 NC =1.34 RB =0.3 RE =0.03
+              RC =0.025 CJC=116.9E-12 MJC=0.3456 VJC=0.4576
+              CJE=223.6E-12 MJE=0.4803 VJE=0.9091 TF =1.2E-9
+              TR =2E-9
*
*
*ZETEX  FMMT718  Spice model   Last revision 15/12/93
*
.MODEL FMMT718 PNP IS =6.8E-13  BF =480 IKF =2 VAF =23
+              ISE=0.8E-13 NE =1.5567 NR =1.00 BR =70 IKR=0.4
+              VAR=7 ISC=7.5E-14 NC =1.19 RB =0.085 RE =0.04
+              RC =0.045 CJC=70.02E-12 MJC=0.4685 VJC=0.7714
+              CJE=203.6E-12 MJE=0.5029 VJE=0.9403 TF =0.71E-9
+              TR =23.7E-9
*
*
*ZETEX  FMMT720  Spice model   Last revision 1/5/03
*
.MODEL FMMT720 PNP IS =6.261E-13  BF =500 IKF =1.4 VAF =28.4 
+ISE=1.057E-13 NE =1.4923 NR =1.00 BR =42 IKR=0.65 VAR=10.21 
+ISC=6E-14 NC =1.124 RB =0.078 RE =0.077 RC =0.04 CJC=59.54E-12 
+MJC=0.5058 VJC=0.8427 CJE=201.4E-12 MJE=0.5244 VJE=1.021 
+TF =0.68E-9 TR =23.7E-9 NK=0.75 XTB=1.8 TRE1=.0025 TRB1=.0025 
+TRC1=.0025 
*
*
*ZETEX  FMMT722  Spice model   Last revision 15/12/93
*
.MODEL FMMT722 PNP IS =6.348E-13  BF =450 IKF =1.25 VAF =30.24
+              ISE=1.375E-13 NE =1.5 NR =1.00 BR =25 IKR=0.8
+              VAR=12.6 ISC=1E-13 NC =1.093 RB =0.081 RE =0.09
+              RC =0.1 CJC=49.87E-12 MJC=0.494 VJC=0.7653
+              CJE=199E-12 MJE=0.5045 VJE=0.9617 TF =0.57E-9
+              TR =57E-9
*
*
*ZETEX  FMMT723  Spice model   Last revision 15/12/93
*
.MODEL FMMT723 PNP IS =5.5E-13  BF =440 IKF =1 VAF =50.88
+              ISE=1.554E-13 NE =1.477 NR =1.03 BR =30 IKR=0.7
+              VAR=13.79 ISC=1.3E-12 NC =1.198 RB =1.5 RE =0.02
+              RC =0.14 CJC=45.74E-12 MJC=0.4889 VJC=0.711
+              CJE=204.3E-12 MJE=0.5105 VJE=0.9711 TF =0.63E-9
+              TR =95E-9
*
*
*ZETEX  FMMTH10 Spice model   Last revision 14/3/97
*
.MODEL FMMTH10 NPN IS =5.6E-16  BF =133 IKF=2.5E-2 VAF=40
+              ISE=6.367E-15 NE =1.75 NR =0.99 BR =8 IKR=1E-2 VAR=6
+              ISC=1E-15 NC =1.167 RB =5 RE =0.65 RC =1.8
+              CJC=1.197E-12 MJC=0.2588 VJC=0.5617 CJE=1.012E-12
+              MJE=0.4496 VJE=1.195 RBM =0.5 IRB =5E-4
+              TF =6E-11 TR =40.5E-9 ITF =2.5 XTF =1000
*
*ZETEX  FZT1047A Spice model   Last revision 18/3/97
*
.MODEL FZT1047A  NPN IS=9.73E-13  NF=1.0  BF=550  IKF=8.0  VAF=120
+               ISE=2.6E-13  NE=1.38  NR=1.0  BR=400  IKR=5  VAR=15
+               ISC=8E-13  NC=1.4  RB=0.1  RE=0.017  RC=0.010
+               CJC=195.4E-12  CJE=540.4E-12  MJC=0.257  MJE=0.359
+               VJC=0.390  VJE=0.753  TF=450E-12  TR=1.2E-9
*
*
*ZETEX  FZT1048A Spice model   Last revision 14/3/97
*
.MODEL FZT1048A NPN IS=13.73E-13  NF=1.0  BF=550  IKF=8.0  VAF=120
+               ISE=2.6E-13  NE=1.38  NR=1.0  BR=300  IKR=6  VAR=15
+               ISC=1.6E-12  NC=1.4  RB=0.1  RE=0.022  RC=0.010
+               CJC=136E-12  CJE=559.1E-12  MJC=0.267  MJE=0.299
+               VJC=0.420  VJE=0.533  TF=600E-12  TR=3E-9
*
*
*ZETEX  FZT1049A Spice model   Last revision 18/3/97
*
.MODEL FZT1049A  NPN IS=1.5E-12  NF=1.0  BF=600  IKF=7.5  VAF=100
+               ISE=0.9E-13  NE=1.25  NR=1.0  BR=150  IKR=3  VAR=15
+               ISC=5.0E-13  NC=1.76  RB=0.1  RE=0.018  RC=0.007
+               CJC=136E-12  CJE=550E-12  MJC=0.352  MJE=0.36
+               VJC=0.554   VJE=0.726  TF=400E-12  TR=6.9E-9
*
*
*ZETEX  FZT1051A Spice model   Last revision 18/3/97
*
.MODEL FZT1051A  NPN IS=1.35E-12  NF=1.0  BF=600  IKF=5.0  VAF=120
+               ISE=0.6E-13  NE=1.25  NR=1.0  BR=150  IKR=3  VAR=15
+               ISC=1.0E-10  NC=1.7  RB=0.1  RE=0.023  RC=0.010
+               CJC=90.36E-12  CJE=547.5E-12  MJC=0.385  MJE=0.357
+               VJC=0.5 VJE=0.741  TF=600E-12  TR=8E-9
*
*
*ZETEX  FZT1053A Spice model   Last revision 18/3/97
*
.MODEL FZT1053A  NPN IS=2.1E-12  NF=1.0  BF=600  IKF=2.2  VAF=100
+               ISE=0.9E-13  NE=1.25  NR=0.99  BR=150  IKR=2.5  VAR=15
+               ISC=5.0E-10  NC=1.76  RB=0.1  RE=0.028  RC=0.016
+               CJC=75.1E-12  CJE=520E-12  MJC=0.415  MJE=0.367
+               VJC=0.512  VJE=0.766  TF=550E-12  TR=22E-9
*
*
*   ZETEX   FZT1147A   Spice model   Last revision 10/12/96
*
.MODEL FZT1147A  PNP IS=1.272e-12 NF=0.989 ISE=2.5e-13 NE=1.65 BF=500
+               VAF=14.59 IKF=8 NR=1 ISC=8e-14 NC= 1.6 BR=90 VAR=3.1
+               IKR=1.2 RE=15e-3 RB=145e-3 RC=13e-3 CJE=560e-12
+               CJC=255e-12 VJC=0.6288 MJC=0.4048 TF=1.2e-9 TR=13e-9
*
*
*   ZETEX   FZT1149A    Spice model   Last revision 10/1/97
*
.MODEL FZT1149A PNP IS=9.5e-13 NF=1.002 ISE=1.2e-13 NE=1.4 BF=520
+              VAF=24.97 IKF=5 NR=0.997 ISC=4.5E-13 NC=1.25 BR=40
+              VAR=2.51 IKR=0.7 RE=20e-3 RB=150e-3 RC=10e-3
+              CJE=490e-12 CJC=150e-12 VJC=1.094 MJC=0.4739
+              TF=1e-9 TR=3.5e-9
*
*
*   ZETEX   FZT1151A   Spice model   Last revision 12/12/96
*
.MODEL FZT1151A PNP IS=1.7e-12 NF=1.004 ISE=1.02e-13 NE=1.55 BF=562
+              VAF=26.01 IKF=3.5 NR=.97 ISC=1.5e-13 NC=1.3 BR=38
+              VAR=2.41 IKR=0.3 RE=25.37e-3 RB=250e-3 RC=25e-3
+              CJE=440e-12 CJC=160e-12 VJC=1.058 MJC=0.5678
+              TF=0.8e-9 TR=55.5e-9
*
*
*ZETEX  FZT653 Spice model   Last revision 18/3/97
*
.MODEL FZT653 NPN IS =3.8206E-13 NF =1.0025 BF =250 IKF=1.15 VAF=154
+             ISE=1.035E-13 NE =1.3642 NR =1.0012 BR =50 IKR=0.42 VAR=38
+             ISC=7E-13 NC =1.19 RB =0.04 RE =0.0875 RC =0.06
+             CJC=45.5E-12 MJC=0.4534 VJC=0.5774 CJE=278E-12
+             TF =0.78E-9 TR =30E-9
*
*
*ZETEX  FZT753 Spice model   Last revision 18/3/97
*
.MODEL FZT753 PNP IS =3.2007E-13 NF =1.0041 BF =200 IKF=1.6 VAF=76
+             ISE=8E-14 NE =1.57 NR =1.0008 BR =33 IKR=0.45 VAR=51
+             ISC=6E-14 NC =1.079 RB =0.087 RE =0.08 RC =0.07
+             CJC=80E-12 MJC=0.4896 VJC=0.7676 CJE=350E-12
+             TF =0.86E-9 TR =24E-9
*
*
*ZETEX   FZT795A  Spice model   Last revision 14/3/97
*
.MODEL FZT795A PNP IS=7.2932E-13 NF=1.003 BF=595 IKF=0.4 VAF=45
+ISE=8.77307E-14 NE=1.44784 NR=0.996 BR=65 IKR=0.42 VAR=41
+ISC=1.52968E-13 NC=1.01957 RB=0.056 RE=0.093 RC=0.143 CJC=65.5E-12
+MJC=0.52 VJC=0.74 CJE=275E-12 TF=0.83E-9 TR=307E-9
*Note, Model may be inaccurate for collector currents above 0.45A.
*
*
*ZETEX FZT796A Spice Model v2.0 Last Revised 24/1/05
*
.MODEL FZT796A PNP IS=7E-13 NF=1.005 BF=450 IKF=2 VAF=450 ISE=1E-14
+NE=1.4 NR=1 BR=6.5 VAR=48 ISC=4.1E-13 IKR=0.4 NC=1.07 RB=0.05
+RE=0.06 RC=0.14 CJC=52E-12 MJC=0.515 VJC=0.65 CJE=280E-12 TF=0.83E-9
+TR=130E-8 XTB=1.4 TRB1=.005 TRE1=.005 QUASIMOD=1 RCO=13 GAMMA=2E-7 
*
*
*ZETEX  FZT849 Spice model   Last revision 14/3/97
*
.MODEL FZT849 NPN IS =5.8591E-13 NF =0.9919 BF =230 IKF=18 VAF=90
+             ISE=2.0067E-13 NE =1.4 NR =0.9908 BR =180 IKR=6.8
+             VAR=20 ISC=5.3E-13 NC =1.46 RB =0.023 RE =0.0223
+             RC =0.015 CJC=200E-12 MJC=0.3006 VJC=0.3532
+             CJE=1.21E-9 TF =1.07E-9 TR =9.3E-9
*
*
*ZETEX  FZT851 Spice model   Last revision 14/3/97
*
.MODEL FZT851 NPN IS =1.0085E-12 NF =1.0001 BF =240 IKF=5.1 VAF=158
+             ISE=2E-13 NE =1.38 NR =0.9988 BR =110 IKR=5.5 VAR=46
+             ISC=4.6515E-13 NC =1.334 RB =0.025 RE =0.018 RC =0.015
+             CJC=155E-12 MJC=0.4348 VJC=0.6477 CJE=1.05E-9
+             TF =0.79E-9 TR =24E-9
*
*
*ZETEX FZT857 Spice Model v2.0 Last Revised 21/01/2005
*
.MODEL FZT857 NPN IS=2E-12 NF=1.006 BF=226 IKF=5 VAF=595 ISE=3.6E-13 
+NE=1.4088 NR=1.01 BR=40 IKR=94m VAR=33.5 ISC=1.502E-12 NC=1.067
+RB=.02 RE=.055 RC=.02 CJC=63E-12 MJC=.505 VJC=.491 CJE=1.1E-9
+TF=1.3E-9 TR=1.75E-6 XTB=1.4 TRB1=.005 TRE1=.005 QUASIMOD=1
+VO=10 RCO=2.5 GAMMA=6E-8 
*
*
*ZETEX  FZT869 Spice model   Last revision 14/3/97
*
.MODEL FZT869 NPN IS =1.9E-12  BF =600 IKF=9 VAF=40
+             ISE=3.752E-13 NE =1.399 NR =1 BR =370 IKR=6
+             VAR=18 ISC=4.135E-13 NC =1.384 RB =1 RBM =0.01
+             IRB =1 RE = 0.01 RC =0.02 CJC=215E-12 MJC=0.3917
+             VJC=0.5871 CJE=910.3E-12 MJE=0.3826 VJE=0.7686
+             TF =1.15E-9 TR =4.01E-9
*
*
*   ZETEX   FZT948   Spice model   Last revision 14/3/97
*
.MODEL FZT948  PNP IS=1.5554E-12 NF=1.013 BF=208 IKF=14.7 VAF=22.4
+ISE=1.48E-13 NE=1.485 NR=1.004 BR=140 IKR=1.34 VAR=15.4
+ISC=1.3946E-11 NC=1.702 RB=0.020 RE=0.0177 RC=0.015 CJC=440E-12
+MJC=0.3604 VJC=0.685 CJE=1.23E-9 TF=1.38E-9 TR=4.8E-9
*
*
*   ZETEX   FZT949   Spice model   Last revision 14/3/97
*
.MODEL FZT949  PNP IS=1.5111E-12 NF=1.0127 BF=208 IKF=12.4 VAF=32.7
+ISE=1.335E-13 NE=1.42 NR=1.009 BR=145 IKR=1.25 VAR=26.5
+ISC=1.392E-13 NC=1.14 RB=0.026 RE=0.019 RC=0.0175 CJC=362E-12
+MJC=0.338 VJC=0.4294 CJE=1.17E-9 TF=1.01E-9 TR=7.5E-9
*
*
*   ZETEX   FZT951   Spice model   Last revision 14/3/97
*
.MODEL FZT951  PNP IS=1.3766E-12 NF=1.013 BF=187 IKF=5.0 VAF=66.3
+ISE=1.4E-13 NE=1.41 NR=1.0099 BR=56 IKR=0.9 VAR=33 ISC=1.7E-12
+NC=1.4 RB=0.029 RE=0.020 RC=0.0255 CJC=287E-12 MJC=0.4522
+VJC=0.4956 CJE=1.15E-9 TF=0.83E-9 TR=20E-9
*
*
*   ZETEX   FZT953   Spice model   Last revision 14/3/97
*
.MODEL FZT953_ZX  PNP IS=1.6649E-12 NF=1.0139 BF=220 IKF=3.4 VAF=55
+ISE=6.2E-13 NE=1.62 NR=1.0107 BR=40 IKR=0.95 VAR=43 ISC=3E-12
+NC=1.4 RB=0.032 RE=0.0295 RC=0.034 CJC=265E-12 MJC=0.5286 VJC=0.76
+CJE=1.1E-9 TF=0.795E-9 TR=37.5E-9
*
*
*ZETEX  FZT955  Spice model   Last revision 4/12/02
*
.MODEL FZT955  PNP IS =6E-13 BF =150 NF=1 VAF=40 ISE=4E-13
+NE=1.42 GAMMA=1E-8 RCO=1 XTB=1.4 BR=21 NR=1.0015 VAR=19 ISC=8E-12
+NC=1.3 RB=0.15 RE=0.023 RC=0.018 CJE=1190E-12 VJE=0.92 MJE=0.44 
+CJC=216E-12 VJC=0.87 MJC=0.54 TF =9E-10 TR=11E-8 
*
*
*   ZETEX   FZT956   Spice model   Last revision 14/3/97
*
.MODEL FZT956  PNP IS=1.3713E-12 NF=1.0094 BF=215 IKF=2.5 VAF=86.0
+ISE=6.545E-13 NE=1.5845 NR=1.0075 BR=18 IKR=0.9 VAR=59 ISC=6E-12
+NC=1.6 RB=0.035 RE=0.0455 RC=0.0745 CJC=191E-12 MJC=0.5535
+VJC=0.8577 CJE=1.08E-9 TF=0.895E-9 TR=118E-9
*
*
*ZETEX FZT957 Spice Model v2.0 Last Revised 21/01/2005
*
.MODEL FZT957  PNP IS=1.3152E-12 NF=1.0106 BF=215 IKF=4 VAF=325
+ISE=5.5E-13 NE=1.524 NR=1.0104 BR=8 IKR=0.63 VAR=110 ISC=6E-12
+NC=1.8 RB=0.25 RE=0.07 RC=0.07 CJC=140E-12 MJC=0.5432 VJC=0.7592
+CJE=1.1E-9 TF=1.23E-9 TR=560E-9 XTB=1.4 TRB1=.005 TRE1=.005
+QUASIMOD=1 VO=10 RCO=6.5 GAMMA=0.8E-7
*
*
*   ZETEX   FZT958   Spice model   Last revision 14/3/97
*
.MODEL FZT958 PNP IS=1.6073E-12 NF=1.013 BF=215 IKF=0.7 VAF=326
+ISE=1.75E-13 NE=1.46 NR=1.05 BR=3.5 IKR=0.85 VAR=78 ISC=5E-11
+NC=1.7 RB=0.05 RE=0.126 RC=0.123 CJC=113E-12 MJC=0.5069 VJC=0.5949
+CJE=1.05E-9 TF=1.26E-9 TR=1.28E-6
*
*
*   ZETEX   FZT968   Spice model   Last revision 14/3/97
*
.MODEL FZT968  PNP IS=3.58E-12 NF=1.015 BF=500 IKF=11 VAF=11.4
+ISE=1.576E-13 NE=1.42 NR=1.01 BR=245 IKR=1.4 VAR=8.4 ISC=1.48E-11
+NC=1.637 RB=0.024 RE=0.0164 RC=0.0235 CJC=438E-12 MJC=0.361
+VJC=0.673 CJE=1.05E-9 TF=1.38E-9 TR=2.3E-9
*
*
*ZETEX  MPS5179 Spice model   Last revision 14/3/97
*
.MODEL MPS5179 NPN IS=5.6E-16  BF=133 IKF=2.5E-2 VAF=40
+              ISE=6.367E-15 NE=1.75 NR=0.99 BR=8 IKR=1E-2 VAR=6
+              ISC=1E-15 NC=1.167 RB=5 RE=0.65 RC=1.8
+              CJC=1.197E-12 MJC=0.2588 VJC=0.5617 CJE=1.012E-12
+              MJE=0.4496 VJE=1.195 RBM=0.5 IRB=5E-4
+              TF=6E-11 TR=40.5E-9 ITF=2.5 XTF=1000
*
*ZETEX  MPSH10 Spice model   Last revision 14/3/97
*
.MODEL MPSH10  NPN IS=5.6E-16  BF=133 IKF=2.5E-2 VAF=40
+              ISE=6.367E-15 NE=1.75 NR=0.99 BR=8 IKR=1E-2 VAR=6
+              ISC=1E-15 NC=1.167 RB=5 RE=0.65 RC=1.8
+              CJC=1.197E-12 MJC=0.2588 VJC=0.5617 CJE=1.012E-12
+              MJE=0.4496 VJE=1.195 RBM=0.5 IRB=5E-4
+              TF=6E-11 TR=40.5E-9 ITF=2.5 XTF=1000
*
*ZETEX  ZHCS1000    Spice Model        Last revision 22/05/02
*
.MODEL ZHCS1000 D IS=1.6e-7 N=.59 RS=137e-3 IKF=2.5e-3 XTI=2
+EG=.58 CJO=184.9p M=.5231 VJ=.3905 Fc=.5 BV=60 IBV=100E-6
+ISR=4E-6 NR=1.8 
*
*
*   ZETEX  ZHCS750    Spice Model        Last revision 23/9/97
*
.MODEL ZHCS750 D IS=7E-6 N=.99 RS=130E-3 IKF=.15 XTI=2 EG=.58
+              Cjo=184.9p M=.523 Vj=.3905 Fc=.5 BV=60 IBV=300E-6
+              ISR=4E-6 NR=1.8
*
*ZETEX  ZTX1047A Spice model   Last revision 20/01/95
*
.MODEL ZTX1047A  NPN IS=9.73E-13  NF=1.0  BF=550  IKF=8.0  VAF=120
+               ISE=2.6E-13  NE=1.38  NR=1.0  BR=400  IKR=5  VAR=15
+               ISC=8E-13  NC=1.4  RB=0.1  RE=0.017  RC=0.010
+               CJC=195.4E-12  CJE=540.4E-12  MJC=0.257  MJE=0.359
+               VJC=0.390  VJE=0.753  TF=450E-12  TR=1.2E-9
*
*
*ZETEX  ZTX1048A Spice model   Last revision 20/01/95
*
.MODEL ZTX1048A NPN IS=13.73E-13  NF=1.0  BF=550  IKF=8.0  VAF=120
+               ISE=2.6E-13  NE=1.38  NR=1.0  BR=300  IKR=6  VAR=15
+               ISC=1.6E-12  NC=1.4  RB=0.1  RE=0.022  RC=0.010
+               CJC=136E-12  CJE=559.1E-12  MJC=0.267  MJE=0.299
+               VJC=0.420  VJE=0.533  TF=600E-12  TR=3E-9
*
*
*ZETEX  ZTX1049A Spice model   Last revision 15/6/95
*
.MODEL ZTX1049A  NPN IS=1.5E-12  NF=1.0  BF=600  IKF=7.5  VAF=100
+               ISE=0.9E-13  NE=1.25  NR=1.0  BR=150  IKR=3  VAR=15
+               ISC=5.0E-13  NC=1.76  RB=0.1  RE=0.018  RC=0.007
+               CJC=136E-12  CJE=550E-12  MJC=0.352  MJE=0.36
+               VJC=0.554   VJE=0.726  TF=400E-12  TR=6.9E-9
*
*
*   Zetex PLC, Fields New Road, Chadderton, Oldham  OL9 8NP

*ZETEX  ZTX1051A Spice model   Last revision 16/12/94
*
.MODEL ZTX1051A  NPN IS=1.35E-12  NF=1.0  BF=600  IKF=5.0  VAF=120
+               ISE=0.6E-13  NE=1.25  NR=1.0  BR=150  IKR=3  VAR=15
+               ISC=1.0E-10  NC=1.7  RB=0.1  RE=0.023  RC=0.010
+               CJC=90.36E-12  CJE=547.5E-12  MJC=0.385  MJE=0.357
+               VJC=0.5 VJE=0.741  TF=600E-12  TR=8E-9
*
*
*ZETEX  ZTX1053A Spice model   Last revision 19/01/95
*
.MODEL ZTX1053A  NPN IS=2.1E-12  NF=1.0  BF=600  IKF=2.2  VAF=100
+               ISE=0.9E-13  NE=1.25  NR=0.99  BR=150  IKR=2.5  VAR=15
+               ISC=5.0E-10  NC=1.76  RB=0.1  RE=0.028  RC=0.016
+               CJC=75.1E-12  CJE=520E-12  MJC=0.415  MJE=0.367
+               VJC=0.512  VJE=0.766  TF=550E-12  TR=22E-9
*
*
*ZETEX  ZTX1055A Spice model   Last revision 25/1/95
*
.MODEL ZTX1055A  NPN IS=1.60E-12  NF=1.0  BF=500  IKF=4.0  VAF=120
+               ISE=4.0E-13  NE=1.4  NR=1.0  BR=80  IKR=2.5  VAR=15
+               ISC=5.0E-10  NC=1.7  RB=0.1  RE=0.040  RC=0.030
+               CJC=63.3E-12  CJE=512.6E-12  MJC=0.439  MJE=0.373
+               VJC=0.511  VJE=0.800  TF=700E-12  TR=110E-9
*
*
*ZETEX  ZTX1056A Spice model   Last revision 24/1/95
*
.MODEL ZTX1056A  NPN IS=1.41E-12  NF=1.0  BF=600  IKF=2.0  VAF=120
+               ISE=4.0E-13  NE=1.4  NR=1.0  BR=80  IKR=2.5  VAR=10
+               ISC=6.0E-10  NC=1.7  RB=0.1  RE=0.065  RC=0.015
+               CJC=53.1E-12  CJE=508.6E-12  MJC=0.461  MJE=0.350
+               VJC=0.461  VJE=0.679  TF=800E-12  TR=110E-9
*
*
*   ZETEX   ZTX1147A   Spice model   Last revision 10/12/96
*
.MODEL ZTX1147A  PNP IS=1.272e-12 NF=0.989 ISE=2.5e-13 NE=1.65 BF=500
+               VAF=14.59 IKF=8 NR=1 ISC=8e-14 NC= 1.6 BR=90 VAR=3.1
+               IKR=1.2 RE=15e-3 RB=145e-3 RC=13e-3 CJE=560e-12
+               CJC=255e-12 VJC=0.6288 MJC=0.4048 TF=1.2e-9 TR=13e-9
*
*
*   ZETEX   ZTX1149A    Spice model   Last revision 10/1/97
*
.MODEL ZTX1149A PNP IS=9.5e-13 NF=1.002 ISE=1.2e-13 NE=1.4 BF=520
+              VAF=24.97 IKF=5 NR=0.997 ISC=4.5E-13 NC=1.25 BR=40
+              VAR=2.51 IKR=0.7 RE=20e-3 RB=150e-3 RC=10e-3
+              CJE=490e-12 CJC=150e-12 VJC=1.094 MJC=0.4739
+              TF=1e-9 TR=3.5e-9
*
*
*   ZETEX   ZTX1151A   Spice model   Last revision 12/12/96
*
.MODEL ZTX1151A PNP IS=1.7e-12 NF=1.004 ISE=1.02e-13 NE=1.55 BF=562
+              VAF=26.01 IKF=3.5 NR=.97 ISC=1.5e-13 NC=1.3 BR=38
+              VAR=2.41 IKR=0.3 RE=25.37e-3 RB=250e-3 RC=25e-3
+              CJE=440e-12 CJC=160e-12 VJC=1.058 MJC=0.5678
+              TF=0.8e-9 TR=55.5e-9
*
*
*ZETEX  ZTX213A Spice model    Last revision  4/90
*
.MODEL ZTX213A PNP IS =1.149E-14 ISE=5E-14 NF =.9872 NE =1.4 BF =330 BR =13
+IKF=.1 IKR=.012 ISC=1.43E-14 NC =1.1 NR =.996 RB =.2 RE =.4 RC =.95 VAR=8.15
+VAF=84.56 CJE=16E-12 TF =.493E-9 CJC=10.5E-12 TR =73.55E-9 MJC=.415 VJC=.565
*
*ZETEX  ZTX327 Spice model   Last revision 24/2/94
*
.MODEL ZTX327 NPN IS=3.15E-15 BF=95 VAF=90 ISE=2.21E-13 NE=1.637
+   BR=8 VAR=10 NF=.9835 NR=.987 IKR=.12 ISC=7.12E-14 NC=1.27 RB=.5
+   RE=0.07 RC=.44 CJE=15E-12 TF=.13E-9 CJC=7.22E-12 TR=1.3E-7
+   VJC=.539 MJC=.4017 XTF=3 ITF=.35
*
*+   IKF=.3           ;Use IKF=.3 and omit NK in 2G6 type Spices.
+   IKF=.85 NK=.75   ;Use IKF=.85 and NK=.75 in PSPICE V5.0 and on.
*
*ZETEX  ZTX5179 Spice model   Last revision 1/11/93 *
.MODEL ZTX5179 NPN IS=5.6E-16  BF=133 IKF=2.5E-2 VAF=40
+              ISE=6.367E-15 NE=1.75 NR=0.99 BR=8 IKR=1E-2 VAR=6
+              ISC=1E-15 NC=1.167 RB=5 RE=0.65 RC=1.8
+              CJC=1.197
*
.MODEL ZTX549 PNP IS =1.3E-13 BF =200 IKF=1.8 VAF=104
+              ISE=6E-14 NE =1.45 BR =50 IKR=0.2 VAR=8
+              ISC=3.5E-14 NC =1.23 RB =0.7 RE =0.063 RC =0.122
+              CJC=55E-12 MJC=0.3541 VJC=0.1928 CJE=120.9E-12
+              MJE=.4685 VJE=1.041 TF =0.51E-9 TR =3.6E-9
*
*
*ZETEX  ZTX601B  Darlington Spice Subcircuit    Last revision 9/5/94
*
.SUBCKT ZTX601B_ZX 1 2 3
*               C B E
Q1 1 2 4 SUB601B
Q2 1 4 3 SUB601B 2.74
*
.MODEL SUB601B NPN IS=8.354E-14 BF=130 VAF=18.3 IKF=0.2 ISE=2E-13
+NE=1.45 BR=2 VAR=6.5 NR=1 IKR=0.2 ISC=6.138E-13 NC=1.46 RB=0.5 RE=0.25
+RC=0.3 CJE=83.7E-12 VJE=0.6868 MJE=0.3362 CJC=8.6E-12 VJC=0.3679 MJC=0.3607
+TF=1E-9 TR=1800E-9
.ENDS ZTX601B_ZX
*
*ZETEX  ZTX618 Spice model   Last revision 8/7/93
*
.MODEL ZTX618  NPN IS =5.611E-13 NF =1.0022 BF =480 IKF=4.6 VAF=51
+               ISE=1.73E-13 NE =1.4 NR =1.0002 BR =200 IKR=3 VAR=25
+               ISC=7.3152E-13 NC =1.47 RB =0.032 RE =0.027 RC =0.025
+               CJC=59E-12 MJC=0.2651 VJC=0.3051 CJE=216E-12
+               TF =0.95E-9 TR =2.25E-9
*
*
*ZETEX  ZTX718  Spice model   Last revision 15/12/93
*
.MODEL ZTX718 PNP IS =6.8E-13  BF =480 IKF =2 VAF =23
+              ISE=0.8E-13 NE =1.5567 NR =1.00 BR =70 IKR=0.4
+              VAR=7 ISC=7.5E-14 NC =1.19 RB =0.085 RE =0.04
+              RC =0.045 CJC=70.02E-12 MJC=0.4685 VJC=0.7714
+              CJE=203.6E-12 MJE=0.5029 VJE=0.9403 TF =0.71E-9
+              TR =23.7E-9
*
*
*ZETEX ZTX857 Spice Model v2.0 Last Revised 21/01/2005
*
.MODEL ZTX857 NPN IS=2E-12 NF=1.006 BF=226 IKF=5 VAF=595 ISE=3.6E-13 
+NE=1.4088 NR=1.01 BR=40 IKR=94m VAR=33.5 ISC=1.502E-12 NC=1.067
+RB=.02 RE=.055 RC=.02 CJC=63E-12 MJC=.505 VJC=.491 CJE=1.1E-9
+TF=1.3E-9 TR=1.75E-6 XTB=1.4 TRB1=.005 TRE1=.005 QUASIMOD=1
+VO=10 RCO=2.5 GAMMA=6E-8 
*
*
*ZETEX  ZTX869 Spice model   Last revision 15/12/93
*
.MODEL ZTX869 NPN IS =1.9E-12  BF =600 IKF=9 VAF=40
+             ISE=3.752E-13 NE =1.399 NR =1 BR =370 IKR=6
+             VAR=18 ISC=4.135E-13 NC =1.384 RB =1 RBM =0.01
+             IRB =1 RE = 0.01 RC =0.02 CJC=215E-12 MJC=0.3917
+             VJC=0.5871 CJE=910.3E-12 MJE=0.3826 VJE=0.7686
+             TF =1.15E-9 TR =4.01E-9
*
*
*ZETEX  ZVN0124A Spice model    Last revision  3/5/00
*
.SUBCKT ZVN0124A_ZX 3 4 5
*                D G S
M1 3 2 5 5 MN0124
RG 4 2 225
RL 3 5 2.4E7
C1 2 5 60E-12
C2 3 2 2E-12 
D1 5 3 DN0124
*
.MODEL MN0124 NMOS VTO=1.5512 RS=1.436 RD=9.254 IS=1E-15 KP=1.077
+CBD=36E-12 PB=1 LAMBDA=0
.MODEL DN0124 D IS=3.071E-12 N=1.026 RS=0.511
.ENDS ZVN0124A_ZX
*
*ZETEX  ZVN2106A Spice model    Last revision   6/4/01
*
*NOTE: If required increase ABSTOL to resolve convergence problems.
*
.SUBCKT ZVN2106A_ZX 3 4 5
*------connections-------D-G-S
M1 6 2 8 8 N2106AM
M2 6 2 8 8 N2106AMS
RG 4 2 15
RD 3 6 0.25
RS 8 5 0.94 
RL 3 5 100E6
C1 2 8 37E-12
C2 2 3  20E-12
C3 15 14 85E-12 
C4 16 8 87E-12
D1 5 3 N2106AD
S1 2 15 13 14 SMOD1
S2 13 15 14 13 SMOD1
S3 16 13 13 8 SMOD2
S4 16 2 8 13 SMOD2
Egs2 13 8 2 8 1
Eds1 14 8 3 8 1
.MODEL N2106AM NMOS VTO=1.6 IS=1E-15 KP=0.67
+CBD=50E-12 PB=1
.MODEL N2106AMS NMOS VTO=.98 IS=1E-15 KP=0.006 PB=1
.MODEL N2106AD D IS=5.516E-13 RS=.2084 N=1.0078
.MODEL SMOD1 VSWITCH RON=.001 ROFF=100  VON=3.5 VOFF=2.5
.MODEL SMOD2 VSWITCH RON=.001 ROFF=100  VON=-5 VOFF=-6
.ENDS ZVN2106A_ZX
*
*ZETEX  ZVN3310A  Spice model    Last revision   3/5/00
*              
.SUBCKT ZVN3310A_ZX 3 4 5
* NODES: DRAIN GATE SOURCE
M1 3 2 5 5 MOD1   
RG 4 2 356
RL 3 5 1E8
C1 2 5 21.5P
C2 3 2 2.5P 
D1 5 3 DIODE1
*
.MODEL MOD1 NMOS VTO=1.736 RS=2.147 RD=1.682 IS=1E-15 KP=0.157
+CBD=25.5P PB=1
.MODEL DIODE1 D IS=6.12E-13 RS=.629
.ENDS ZVN3310A_ZX
*
*ZETEX  ZVN3310F Spice model    Last revision   3/5/00
*              
.SUBCKT ZVN3310F_ZX 3 4 5
* NODES: DRAIN GATE SOURCE
M1 3 2 5 5 MOD1   
RG 4 2 356
RL 3 5 1E8
C1 2 5 21.5P
C2 3 2 2.5P 
D1 5 3 DIODE1
*
.MODEL MOD1 NMOS VTO=1.736 RS=2.147 RD=1.682 IS=1E-15 KP=0.157
+CBD=25.5P PB=1
.MODEL DIODE1 D IS=6.12E-13 RS=.629
.ENDS ZVN3310F_ZX
*
*ZETEX  ZVN4106F  Spice model    Last revision  3/5/00
*
.SUBCKT ZVN4106F_ZX 3 4 5
* Nodes          D G S
M1 3 2 5 5 MOD1
RG 4 2 343
RL 3 5 6E6
C1 2 5 23.5P
C2 3 2 4.5P 
D1 5 3 DIODE1
*
.MODEL MOD1 NMOS VTO=2.474 RS=1.68 RD=0.0 IS=1E-15 KP=0.296
+CBD=53.5P PB=1 LAMBDA=267E-6
.MODEL DIODE1 D IS=1.254E-13 N=1.0207 RS=0.222
.ENDS ZVN4106F_ZX
*
*ZETEX  ZVN4210A  Spice model    Last revision  3/5/00
*
.SUBCKT ZVN4210A_ZX 3 4 5
* Nodes          D G S
M1 3 2 5 5 MOD1
RG 4 2 401.5
RL 3 5 1E7
C1 2 5 61.5P
C2 3 2 3.5P 
D1 5 3 DIODE1
*
.MODEL MOD1 NMOS VTO=1.922 RS=0.858 RD=0.2025 IS=1E-15 KP=2.082
+CBD=108P PB=1 LAMBDA=0
.MODEL DIODE1 D IS=1.10461E-12 N=1.0114 RS=0.166
.ENDS ZVN4210A_ZX
*
*ZETEX  ZVN4210G  Spice model    Last revision  3/5/00
*
.SUBCKT ZVN4210G_ZX 3 4 5
* Nodes          D G S
M1 3 2 5 5 MOD1
RG 4 2 401.5
RL 3 5 1E7
C1 2 5 61.5P
C2 3 2 3.5P 
D1 5 3 DIODE1
*
.MODEL MOD1 NMOS VTO=1.922 RS=0.858 RD=0.2025 IS=1E-15 KP=2.082
+CBD=108P PB=1 LAMBDA=0
.MODEL DIODE1 D IS=1.10461E-12 N=1.0114 RS=0.166
.ENDS ZVN4210G_ZX
*
*ZETEX   ZVN4306A  Spice model    Last revision  3/5/00
*
.SUBCKT ZVN4306A_ZX 3 4 5
*NODES: DRAIN GATE SOURCE
M1 3 2 5 5 MOD1
RG 4 2 108
RL 3 5 6E6
C1 2 5 224.5E-12
C2 3 2 10.5E-12 
D1 5 3 DIODE1
*
.MODEL MOD1 NMOS VTO=2.634 RS=0.2762 RD=0.0 IS=1E-15 KP=9.77
+CBD=405E-12 PB=1 LAMBDA=0
.MODEL DIODE1 D IS=6.19E-13 N=1.0043 RS=0.065
.ENDS ZVN4306A_ZX
*
*ZETEX  ZVN4306G  Spice model    Last revision  3/5/00
*
.SUBCKT ZVN4306G_ZX 3 4 5
*NODES: DRAIN GATE SOURCE
M1 3 2 5 5 MOD1
RG 4 2 108
RL 3 5 6E6
C1 2 5 224.5E-12
C2 3 2 10.5E-12 
D1 5 3 DIODE1
*
.MODEL MOD1 NMOS VTO=2.634 RS=0.2762 RD=0.0 IS=1E-15 KP=9.77
+CBD=405E-12 PB=1 LAMBDA=0
.MODEL DIODE1 D IS=6.19E-13 N=1.0043 RS=0.065
.ENDS ZVN4306G_ZX
*
*ZETEX   ZVN4310A  Spice model    Last revision  8/2/02
*
.SUBCKT ZVN4310A_ZX 3 4 5
*NODES: DRAIN GATE SOURCE
M1 3 2 5 5 MOD1
RG 4 2 82
RL 3 5 1E7
C1 2 5 200E-12
C2 3 2 13.5E-12 
D1 5 3 DIODE1
*
.MODEL MOD1 NMOS VTO=2.555 RS=0.2068 RD=0.1665 IS=1E-15 KP=5.02
+CBD=288E-12 PB=1 LAMBDA=0
.MODEL DIODE1 D IS=9.759E-13 N=1.02476 RS=0.0844
.ENDS ZVN4310A_ZX
*
*ZETEX  ZVN4310G  Spice model    Last revision  8/2/02
*
.SUBCKT ZVN4310G_ZX 3 4 5
*NODES: DRAIN GATE SOURCE
M1 3 2 5 5 MOD1
RG 4 2 82
RL 3 5 1E7
C1 2 5 200E-12
C2 3 2 13.5E-12 
D1 5 3 DIODE1
*
.MODEL MOD1 NMOS VTO=2.555 RS=0.2068 RD=0.1665 IS=1E-15 KP=5.02
+CBD=288E-12 PB=1 LAMBDA=0
.MODEL DIODE1 D IS=9.759E-13 N=1.02476 RS=0.0844
.ENDS ZVN4310G_ZX
*
*ZETEX  ZVN4424A Spice model    Last revision   20/3/01
*
*NOTE: If required increase ABSTOL to resolve convergence problems.
*
.SUBCKT ZVN4424A_ZX 3 4 5
*------connections-------D-G-S
M1 6 2 8 8 N4424AM
M2 6 2 8 8 N4424AMS
RG 4 2 9
RD 3 6 3.6
RS 8 5 0.15 
RL 3 5 240E6
C1 2 8 137E-12
C2 2 3  15E-12
C3 15 14 385E-12 
C4 16 8 220E-12
D1 5 3 N4424AD
S1 2 15 13 14 SMOD1
S2 13 15 14 13 SMOD1
S3 16 13 13 8 SMOD2
S4 16 2 8 13 SMOD2
Egs2 13 8 2 8 1
Eds1 14 8 3 8 1
.MODEL N4424AM NMOS VTO=1.3 IS=1E-15 KP=0.85
+CBD=66.2E-12 PB=1
.MODEL N4424AMS NMOS VTO=.86 IS=1E-15 KP=0.0085
+CBD=.66E-12 PB=1
.MODEL N4424AD D IS=5.516E-13 RS=.2084 N=1.0078
.MODEL SMOD1 VSWITCH RON=.001 ROFF=100  VON=1.5 VOFF=1
.MODEL SMOD2 VSWITCH RON=.001 ROFF=100  VON=-0.5 VOFF=-2.5
.ENDS ZVN4424A_ZX
*
*ZETEX  ZVN4424G Spice model    Last revision   20/3/01
*
*NOTE: If required increase ABSTOL to resolve convergence problems.
*
.SUBCKT ZVN4424G_ZX 3 4 5
*------connections-------D-G-S
M1 6 2 8 8 N4424AM
M2 6 2 8 8 N4424AMS
RG 4 2 9
RD 3 6 3.6
RS 8 5 0.15 
RL 3 5 240E6
C1 2 8 137E-12
C2 2 3  15E-12
C3 15 14 385E-12 
C4 16 8 220E-12
D1 5 3 N4424AD
S1 2 15 13 14 SMOD1
S2 13 15 14 13 SMOD1
S3 16 13 13 8 SMOD2
S4 16 2 8 13 SMOD2
Egs2 13 8 2 8 1
Eds1 14 8 3 8 1
.MODEL N4424AM NMOS VTO=1.3 IS=1E-15 KP=0.85
+CBD=66.2E-12 PB=1
.MODEL N4424AMS NMOS VTO=.86 IS=1E-15 KP=0.0085
+CBD=.66E-12 PB=1
.MODEL N4424AD D IS=5.516E-13 RS=.2084 N=1.0078
.MODEL SMOD1 VSWITCH RON=.001 ROFF=100  VON=1.5 VOFF=1
.MODEL SMOD2 VSWITCH RON=.001 ROFF=100  VON=-0.5 VOFF=-2.5
.ENDS ZVN4424G_ZX
*
*ZETEX  ZVP2106A Spice model    Last revision   3/5/00
*
.SUBCKT ZVP2106A_ZX 3 4 5
*                D G S
M1 3 2 5 5 MP2106
RG 4 2 160
RL 3 5 1.2E8
C1 2 5 47E-12
C2 3 2 10E-12 
D1 3 5 DP2106
*
.MODEL MP2106 PMOS VTO=-3.193 RS=2.041 RD=0.697 IS=1E-15 KP=0.277
+CBD=105E-12 PB=1 LAMBDA=1.2E-2
.MODEL DP2106 D IS=2E-13 RS=0.309
.ENDS ZVP2106A_ZX
*
*ZETEX  ZVP3306A Spice model    Last revision  3/5/00
*
.SUBCKT ZVP3306A_ZX 3 4 5
*                D G S
M1 3 2 5 5 P3306M
RG 4 2 252
RL 3 5 1.2E8
C1 2 5 28E-12
C2 3 2 3E-12
D1 3 5 P3306D
*