*****************************************************************************
*                Subcircuit generated by BoardScanner                       *
*****************************************************************************
.subckt BIG150 D1 D2 D3 EA EB OA B 8 9 10 11 12 13 14 15 16 17 18 19 20
+ 21 22 23 24 25 26 27 28 29 30 31 32 33 34 35 36 37 38 39 40 41 42 43 44 45 46
+ 47 48 49 50 51 52 53 54 55 56 57 58 59 60 61 62 63 64 65 66 67 68 69 70 71 72
+ 73 74 75 76 77 78 79 80 81 82 83 84 85 86 87 88 89 90 91 92 93 94 95 96 97 98
+ 99 100 101 102 103 104 105 106 107 108 109 110 111 112 113 114 115 116 117 118
+ 119 120 121 122 123 124 125 126 127 128 129 130 131 132 133 134 135 136 137 138
+ 139 140 141 142 143 144 145 146 147 148 149 150

BB4 1 2 3 4 5 6 7 8 9 10 11 12 13 14 15 16 17 18 19 20 21 22 23 24 25 26 27
+ 28 29 30 31 32 33 34 35 36 37 38 39 40 41 42 43 44 45 46 47 48 49 50 51 52 53
+ 54 55 56 57 58 59 60 61 62 63 64 65 66 67 68 69 70 71 72 73 74 75 76 77 78 79
+ 80 81 82 83 84 85 86 87 88 89 90 91 92 93 94 95 96 97 98 99 100 101 102 103
+ 104 105 106 107 108 109 110 111 112 113 114 115 116 117 118 119 120 121 122
+ 123 124 249 250 251 252 253 254 255 256 257 258 259 260 261 262 263 264 265
+ 266 267 268 269 270 271 272 273 274 275 276 277 278 279 280 281 282 283 284
+ 285 286 287 288 289 290 291 292 293 294 295 296 297 298 299 300 301 302 303
+ 304 305 306 307 308 309 310 311 312 313 314 315 316 317 318 319 320 321 322
+ 323 324 325 326 327 328 329 330 331 332 333 334 335 336 337 338 339 340 341
+ 342 343 344 345 346 347 348 349 350 351 352 353 354 355 356 357 358 359 360
+ 361 362 363 364 365 366 367 368 369 370 371 372 PART1

BB0 249 250 251 252 253 254 255 256 257 258 259 260 261 262 263 264 265 266 267
+ 268 269 270 271 272 273 274 275 276 277 278 279 280 281 282 283 284 285 286
+ 287 288 289 290 291 292 293 294 295 296 297 298 299 300 301 302 303 304 305
+ 306 307 308 309 310 311 312 313 314 315 316 317 318 319 320 321 322 323 324
+ 325 326 327 328 329 330 331 332 333 334 335 336 337 338 339 340 341 342 343
+ 344 345 346 347 348 349 350 351 352 353 354 355 356 357 358 359 360 361 362
+ 363 364 365 366 367 368 369 370 371 372 bbr3

BB5 249 250 251 252 253 254 255 256 257 258 259 260 261 262 263 264 265 266
+ 267 268 269 270 271 272 273 274 275 276 277 278 279 280 281 282 283 284 285
+ 286 287 288 289 290 291 292 293 294 295 296 297 298 299 300 301 302 303 304
+ 305 306 307 308 309 310 311 312 313 314 315 316 317 318 319 320 321 322 323
+ 324 325 326 327 328 329 330 331 332 333 334 335 336 337 338 339 340 341 342
+ 343 344 345 346 347 348 349 350 351 352 353 354 355 356 357 358 359 360 361
+ 362 363 364 365 366 367 368 369 370 371 372 125 125 125 125 125 125 125 126
+ 126 126 126 126 126 126 126 127 127 127 127 127 127 127 127 127 127 127 127
+ 127 127 127 127 127 127 127 127 127 127 127 127 128 128 128 128 128 128 128
+ 128 128 128 128 128 128 128 128 128 129 129 129 129 129 129 129 129 129 129
+ 129 129 129 129 129 129 129 129 129 129 129 129 129 129 130 130 130 130 130
+ 130 130 130 130 130 130 130 130 130 130 130 130 130 130 130 130 130 130 130
+ 131 131 131 131 131 131 131 131 131 132 132 132 133 133 133 134 134 134 135
+ 135 135 PART1

.subckt PART1 1 2 3 4 5 6 7 8 9 10 11 12 13 14 15 16 17 18 19
+ 20 21 22 23 24 25 26 27 28 29 30 31 32 33 34 35 36 37 38 39 40 41 42 43 44 45
+ 46 47 48 49 50 51 52 53 54 55 56 57 58 59 60 61 62 63 64 65 66 67 68 69 70 71
+ 72 73 74 75 76 77 78 79 80 81 82 83 84 85 86 87 88 89 90 91 92 93 94 95 96 97
+ 98 99 100 101 102 103 104 105 106 107 108 109 110 111 112 113 114 115 116 117
+ 118 119 120 121 122 123 124 125 126 127 128 129 130 131 132 133 134 135 136
+ 137 138 139 140 141 142 143 144 145 146 147 148 149 150 151 152 153 154 155
+ 156 157 158 159 160 161 162 163 164 165 166 167 168 169 170 171 172 173 174
+ 175 176 177 178 179 180 181 182 183 184 185 186 187 188 189 190 191 192 193
+ 194 195 196 197 198 199 200 201 202 203 204 205 206 207 208 209 210 211 212
+ 213 214 215 216 217 218 219 220 221 222 223 224 225 226 227 228 229 230 231
+ 232 233 234 235 236 237 238 239 240 241 242 243 244 245 246 247 248
V1 1 249 dc 0.0
V2 2 250 dc 0.0
V3 3 251 dc 0.0
V4 4 252 dc 0.0
V5 5 253 dc 0.0
V6 6 254 dc 0.0
V7 7 255 dc 0.0
V8 8 256 dc 0.0
V9 9 257 dc 0.0
V10 10 258 dc 0.0
V11 11 259 dc 0.0
V12 12 260 dc 0.0
V13 13 261 dc 0.0
V14 14 262 dc 0.0
V15 15 263 dc 0.0
V16 16 264 dc 0.0
V17 17 265 dc 0.0
V18 18 266 dc 0.0
V19 19 267 dc 0.0
V20 20 268 dc 0.0
V21 21 269 dc 0.0
V22 22 270 dc 0.0
V23 23 271 dc 0.0
V24 24 272 dc 0.0
V25 25 273 dc 0.0
V26 26 274 dc 0.0
V27 27 275 dc 0.0
V28 28 276 dc 0.0
V29 29 277 dc 0.0
V30 30 278 dc 0.0
V31 31 279 dc 0.0
V32 32 280 dc 0.0
V33 33 281 dc 0.0
V34 34 282 dc 0.0
V35 35 283 dc 0.0
V36 36 284 dc 0.0
V37 37 285 dc 0.0
V38 38 286 dc 0.0
V39 39 287 dc 0.0
V40 40 288 dc 0.0
V41 41 289 dc 0.0
V42 42 290 dc 0.0
V43 43 291 dc 0.0
V44 44 292 dc 0.0
V45 45 293 dc 0.0
V46 46 294 dc 0.0
V47 47 295 dc 0.0
V48 48 296 dc 0.0
V49 49 297 dc 0.0
V50 50 298 dc 0.0
V51 51 299 dc 0.0
V52 52 300 dc 0.0
V53 53 301 dc 0.0
V54 54 302 dc 0.0
V55 55 303 dc 0.0
V56 56 304 dc 0.0
V57 57 305 dc 0.0
V58 58 306 dc 0.0
V59 59 307 dc 0.0
V60 60 308 dc 0.0
V61 61 309 dc 0.0
V62 62 310 dc 0.0
V63 63 311 dc 0.0
V64 64 312 dc 0.0
V65 65 313 dc 0.0
V66 66 314 dc 0.0
V67 67 315 dc 0.0
V68 68 316 dc 0.0
V69 69 317 dc 0.0
V70 70 318 dc 0.0
V71 71 319 dc 0.0
V72 72 320 dc 0.0
V73 73 321 dc 0.0
V74 74 322 dc 0.0
V75 75 323 dc 0.0
V76 76 324 dc 0.0
V77 77 325 dc 0.0
V78 78 326 dc 0.0
V79 79 327 dc 0.0
V80 80 328 dc 0.0
V81 81 329 dc 0.0
V82 82 330 dc 0.0
V83 83 331 dc 0.0
V84 84 332 dc 0.0
V85 85 333 dc 0.0
V86 86 334 dc 0.0
V87 87 335 dc 0.0
V88 88 336 dc 0.0
V89 89 337 dc 0.0
V90 90 338 dc 0.0
V91 91 339 dc 0.0
V92 92 340 dc 0.0
V93 93 341 dc 0.0
V94 94 342 dc 0.0
V95 95 343 dc 0.0
V96 96 344 dc 0.0
V97 97 345 dc 0.0
V98 98 346 dc 0.0
V99 99 347 dc 0.0
V100 100 348 dc 0.0
V101 101 349 dc 0.0
V102 102 350 dc 0.0
V103 103 351 dc 0.0
V104 104 352 dc 0.0
V105 105 353 dc 0.0
V106 106 354 dc 0.0
V107 107 355 dc 0.0
V108 108 356 dc 0.0
V109 109 357 dc 0.0
V110 110 358 dc 0.0
V111 111 359 dc 0.0
V112 112 360 dc 0.0
V113 113 361 dc 0.0
V114 114 362 dc 0.0
V115 115 363 dc 0.0
V116 116 364 dc 0.0
V117 117 365 dc 0.0
V118 118 366 dc 0.0
V119 119 367 dc 0.0
V120 120 368 dc 0.0
V121 121 369 dc 0.0
V122 122 370 dc 0.0
V123 123 371 dc 0.0
V124 124 372 dc 0.0
R1 249 373 0.136956658685
R2 250 374 0.0107595459574
R3 251 375 0.105282092468
R4 252 376 0.00765560861893
R5 253 377 0.14140006786
R6 254 378 0.109387722654
R7 255 379 0.119064223274
R8 256 380 0.0109287992555
R9 257 381 0.00614238316025
R10 258 382 0.506451345434
R11 259 383 0.012376363673
R12 260 384 0.886475124398
R13 261 385 0.656476799076
R14 262 386 1.22168053183
R15 263 387 0.51235297759
R16 264 388 0.517311346544
R17 265 389 0.148190959839
R18 266 390 0.60391235674
R19 267 391 0.277495370179
R20 268 392 0.684722519542
R21 269 393 0.413715930518
R22 270 394 0.761846459969
R23 271 395 0.0187851849313
R24 272 396 0.51633597259
R25 273 397 0.520004258766
R26 274 398 0.522111113666
R27 275 399 0.170448149956
R28 276 400 0.594840276808
R29 277 401 0.591724426729
R30 278 402 0.590849623894
R31 279 403 0.295337353097
R32 280 404 0.681002043353
R33 281 405 0.684880403946
R34 282 406 0.687384490782
R35 283 407 0.430780010607
R36 284 408 0.761658252446
R37 285 409 0.765552042255
R38 286 410 0.767755846505
R39 287 411 0.529465424372
R40 288 412 0.0661130279564
R41 289 413 0.108855466456
R42 290 414 0.133132437065
R43 291 415 0.160179317504
R44 292 416 0.335812944035
R45 293 417 0.0170503199461
R46 294 418 0.0706292550141
R47 295 419 0.126493826244
R48 296 420 0.153047614475
R49 297 421 0.251385096887
R50 298 422 0.162738868777
R51 299 423 0.239458890519
R52 300 424 0.245283150902
R53 301 425 0.363897660066
R54 302 426 0.159840529115
R55 303 427 0.156178943513
R56 304 428 0.613154708228
R57 305 429 0.153256646848
R58 306 430 0.686077247734
R59 307 431 0.303590313741
R60 308 432 0.762983863387
R61 309 433 0.470959602025
R62 310 434 0.842214311777
R63 311 435 0.0195925617607
R64 312 436 0.613630013016
R65 313 437 0.616911161042
R66 314 438 0.617761226287
R67 315 439 0.176013151813
R68 316 440 0.682309840816
R69 317 441 0.685455856571
R70 318 442 0.687047487926
R71 319 443 0.326297116456
R72 320 444 0.757108993831
R73 321 445 0.760927673952
R74 322 446 0.763431457639
R75 323 447 0.483116318741
R76 324 448 0.836813901166
R77 325 449 0.84049436147
R78 326 450 0.842449187692
R79 327 451 0.69105646931
R80 328 452 0.0647748660918
R81 329 453 0.140278114833
R82 330 454 0.231837856832
R83 331 455 0.00656810225867
R84 332 456 0.00790527591252
R85 333 457 0.00835918743449
R86 334 458 0.0636140678626
R87 335 459 0.0661023026357
R88 336 460 0.0672118194943
R89 337 461 0.137424561711
R90 338 462 0.140844074259
R91 339 463 0.143355400635
R92 340 464 0.22407273935
R93 341 465 0.227566345889
R94 342 466 0.230425236089
R95 343 467 0.0544433198613
R96 344 468 0.64775705964
R97 345 469 0.940508750367
R98 346 470 1.23604454242
R99 347 471 0.0136574993878
R100 348 472 0.663146565
R101 349 473 1.06323630736
R102 350 474 1.41123387134
R103 351 475 0.231497774789
R104 352 476 0.00749738235313
R105 353 477 0.573363289099
R106 354 478 0.027588009661
R107 355 479 0.142131395555
R108 356 480 0.694395576892
R109 357 481 0.988367395368
R110 358 482 1.25277514113
R111 359 483 0.565297960715
R112 360 484 0.00554096880735
R113 361 485 0.185826753522
R114 362 486 0.287766032136
R115 363 487 0.281573719348
R116 364 488 0.152122081449
R117 365 489 0.0918805099457
R118 366 490 0.00541827031745
R119 367 491 0.374247738949
R120 368 492 0.494814055449
R121 369 493 0.496259445665
R122 370 494 0.126554693982
R123 371 495 0.223667406659
R124 372 496 0.225043048198
F1_2 373 249 V2 0.0910034
F1_3 373 249 V3 -0.0192203
F1_4 373 249 V4 0.0554194
F1_5 373 249 V5 0.968758
F1_6 373 249 V6 -0.0219208
F1_7 373 249 V7 0.876258
F1_8 373 249 V8 0.00188874
F1_9 373 249 V9 -0.00069115
F1_10 373 249 V10 -0.178656
F1_11 373 249 V11 -0.00512481
F1_12 373 249 V12 -0.207048
F1_13 373 249 V13 -0.193456
F1_14 373 249 V14 -0.216074
F1_15 373 249 V15 -0.181331
F1_16 373 249 V16 -0.0472008
F1_17 373 249 V17 -0.0232425
F1_18 373 249 V18 -0.0519421
F1_19 373 249 V19 -0.0344821
F1_20 373 249 V20 -0.054907
F1_21 373 249 V21 -0.041667
F1_22 373 249 V22 -0.0578244
F1_23 373 249 V23 -0.00580396
F1_24 373 249 V24 -0.0475725
F1_25 373 249 V25 -0.047797
F1_26 373 249 V26 -0.0478564
F1_27 373 249 V27 -0.0248482
F1_28 373 249 V28 -0.0516126
F1_29 373 249 V29 -0.0514284
F1_30 373 249 V30 -0.051373
F1_31 373 249 V31 -0.0353049
F1_32 373 249 V32 -0.0551314
F1_33 373 249 V33 -0.0552897
F1_34 373 249 V34 -0.0553266
F1_35 373 249 V35 -0.0422425
F1_36 373 249 V36 -0.0580675
F1_37 373 249 V37 -0.0582116
F1_38 373 249 V38 -0.0582454
F1_39 373 249 V39 -0.0487104
F1_40 373 249 V40 -0.00515434
F1_41 373 249 V41 -0.00807704
F1_42 373 249 V42 -0.0112086
F1_43 373 249 V43 0.0180914
F1_44 373 249 V44 0.170365
F1_45 373 249 V45 -0.000537751
F1_46 373 249 V46 -0.00483584
F1_47 373 249 V47 -0.00841163
F1_48 373 249 V48 -0.0115346
F1_49 373 249 V49 0.0973779
F1_50 373 249 V50 0.0191862
F1_51 373 249 V51 0.0693635
F1_52 373 249 V52 0.0847525
F1_53 373 249 V53 0.182679
F1_54 373 249 V54 0.0193165
F1_55 373 249 V55 0.0183519
F1_56 373 249 V56 -0.171008
F1_57 373 249 V57 -0.00982804
F1_58 373 249 V58 -0.193811
F1_59 373 249 V59 -0.0278765
F1_60 373 249 V60 -0.204357
F1_61 373 249 V61 -0.130367
F1_62 373 249 V62 -0.211313
F1_63 373 249 V63 -0.000936811
F1_64 373 249 V64 -0.175491
F1_65 373 249 V65 -0.17773
F1_66 373 249 V66 -0.177896
F1_67 373 249 V67 -0.0112765
F1_68 373 249 V68 -0.195077
F1_69 373 249 V69 -0.195717
F1_70 373 249 V70 -0.195868
F1_71 373 249 V71 -0.030941
F1_72 373 249 V72 -0.204894
F1_73 373 249 V73 -0.20529
F1_74 373 249 V74 -0.205393
F1_75 373 249 V75 -0.149853
F1_76 373 249 V76 -0.211782
F1_77 373 249 V77 -0.212079
F1_78 373 249 V78 -0.212127
F1_79 373 249 V79 -0.196875
F1_80 373 249 V80 -0.0101459
F1_81 373 249 V81 -0.0288155
F1_82 373 249 V82 -0.0930077
F1_83 373 249 V83 -0.00080253
F1_84 373 249 V84 -0.0012361
F1_85 373 249 V85 -0.00139877
F1_86 373 249 V86 -0.0113375
F1_87 373 249 V87 -0.0120501
F1_88 373 249 V88 -0.012344
F1_89 373 249 V89 -0.0309554
F1_90 373 249 V90 -0.0326466
F1_91 373 249 V91 -0.0334137
F1_92 373 249 V92 -0.0942668
F1_93 373 249 V93 -0.101141
F1_94 373 249 V94 -0.0968508
F1_95 373 249 V95 -0.00555782
F1_96 373 249 V96 -0.192642
F1_97 373 249 V97 -0.20485
F1_98 373 249 V98 -0.211773
F1_99 373 249 V99 0.0028755
F1_100 373 249 V100 -0.194746
F1_101 373 249 V101 -0.207908
F1_102 373 249 V102 -0.214843
F1_103 373 249 V103 -0.110457
F1_104 373 249 V104 0.00194145
F1_105 373 249 V105 -0.252908
F1_106 373 249 V106 0.00238533
F1_107 373 249 V107 0.0143047
F1_108 373 249 V108 -0.261148
F1_109 373 249 V109 -0.273905
F1_110 373 249 V110 -0.280924
F1_111 373 249 V111 -0.251401
F1_112 373 249 V112 -0.00201269
F1_113 373 249 V113 0.0203344
F1_114 373 249 V114 0.0275999
F1_115 373 249 V115 0.0266772
F1_116 373 249 V116 0.00790243
F1_117 373 249 V117 0.00465832
F1_118 373 249 V118 0.000846553
F1_119 373 249 V119 -0.0184262
F1_120 373 249 V120 -0.0220396
F1_121 373 249 V121 -0.0223402
F1_122 373 249 V122 -0.0024927
F1_123 373 249 V123 -0.00588442
F1_124 373 249 V124 -0.00614953
F2_1 374 250 V1 1.15837
F2_3 374 250 V3 -0.0616814
F2_4 374 250 V4 0.628703
F2_5 374 250 V5 1.14938
F2_6 374 250 V6 -0.0777333
F2_7 374 250 V7 1.14392
F2_8 374 250 V8 0.00497453
F2_9 374 250 V9 -0.00128154
F2_10 374 250 V10 -0.703326
F2_11 374 250 V11 -0.0130566
F2_12 374 250 V12 -0.845287
F2_13 374 250 V13 -0.780892
F2_14 374 250 V14 -0.885351
F2_15 374 250 V15 -0.718136
F2_16 374 250 V16 -0.25634
F2_17 374 250 V17 -0.140176
F2_18 374 250 V18 -0.277346
F2_19 374 250 V19 -0.196404
F2_20 374 250 V20 -0.290322
F2_21 374 250 V21 -0.230705
F2_22 374 250 V22 -0.30278
F2_23 374 250 V23 -0.0378918
F2_24 374 250 V24 -0.257976
F2_25 374 250 V25 -0.258972
F2_26 374 250 V26 -0.259257
F2_27 374 250 V27 -0.148446
F2_28 374 250 V28 -0.275912
F2_29 374 250 V29 -0.27513
F2_30 374 250 V30 -0.274879
F2_31 374 250 V31 -0.200301
F2_32 374 250 V32 -0.291288
F2_33 374 250 V33 -0.291962
F2_34 374 250 V34 -0.292129
F2_35 374 250 V35 -0.233322
F2_36 374 250 V36 -0.303826
F2_37 374 250 V37 -0.304432
F2_38 374 250 V38 -0.304563
F2_39 374 250 V39 -0.263069
F2_40 374 250 V40 -0.0226274
F2_41 374 250 V41 -0.0354052
F2_42 374 250 V42 -0.0486822
F2_43 374 250 V43 0.0873197
F2_44 374 250 V44 1.00445
F2_45 374 250 V45 -0.0023824
F2_46 374 250 V46 -0.021253
F2_47 374 250 V47 -0.0368404
F2_48 374 250 V48 -0.0500522
F2_49 374 250 V49 0.647425
F2_50 374 250 V50 0.0928641
F2_51 374 250 V51 0.453402
F2_52 374 250 V52 0.5723
F2_53 374 250 V53 1.01279
F2_54 374 250 V54 0.0935776
F2_55 374 250 V55 0.088651
F2_56 374 250 V56 -0.597816
F2_57 374 250 V57 -0.0316118
F2_58 374 250 V58 -0.738832
F2_59 374 250 V59 -0.0810326
F2_60 374 250 V60 -0.792268
F2_61 374 250 V61 -0.182998
F2_62 374 250 V62 -0.825595
F2_63 374 250 V63 -0.00330239
F2_64 374 250 V64 -0.623585
F2_65 374 250 V65 -0.639902
F2_66 374 250 V66 -0.643182
F2_67 374 250 V67 -0.0362846
F2_68 374 250 V68 -0.745233
F2_69 374 250 V69 -0.748736
F2_70 374 250 V70 -0.749781
F2_71 374 250 V71 -0.088871
F2_72 374 250 V72 -0.794826
F2_73 374 250 V73 -0.796761
F2_74 374 250 V74 -0.79726
F2_75 374 250 V75 -0.199561
F2_76 374 250 V76 -0.827685
F2_77 374 250 V77 -0.829049
F2_78 374 250 V78 -0.829283
F2_79 374 250 V79 -0.755056
F2_80 374 250 V80 -0.0299988
F2_81 374 250 V81 -0.078118
F2_82 374 250 V82 -0.181359
F2_83 374 250 V83 -0.00261705
F2_84 374 250 V84 -0.00396982
F2_85 374 250 V85 -0.00443128
F2_86 374 250 V86 -0.0338399
F2_87 374 250 V87 -0.0358798
F2_88 374 250 V88 -0.0365286
F2_89 374 250 V89 -0.0837873
F2_90 374 250 V90 -0.0872748
F2_91 374 250 V91 -0.0880335
F2_92 374 250 V92 -0.198304
F2_93 374 250 V93 -0.211388
F2_94 374 250 V94 -0.210461
F2_95 374 250 V95 -0.0161249
F2_96 374 250 V96 -0.729931
F2_97 374 250 V97 -0.785796
F2_98 374 250 V98 -0.81571
F2_99 374 250 V99 0.00976362
F2_100 374 250 V100 -0.739829
F2_101 374 250 V101 -0.799126
F2_102 374 250 V102 -0.828707
F2_103 374 250 V103 -0.23504
F2_104 374 250 V104 0.00513227
F2_105 374 250 V105 -0.589452
F2_106 374 250 V106 0.00677666
F2_107 374 250 V107 0.045206
F2_108 374 250 V108 -0.629534
F2_109 374 250 V109 -0.687952
F2_110 374 250 V110 -0.718301
F2_111 374 250 V111 -0.581979
F2_112 374 250 V112 -0.0052888
F2_113 374 250 V113 0.0555544
F2_114 374 250 V114 0.0778105
F2_115 374 250 V115 0.0747408
F2_116 374 250 V116 0.0370849
F2_117 374 250 V117 0.0216968
F2_118 374 250 V118 0.00386367
F2_119 374 250 V119 -0.0871916
F2_120 374 250 V120 -0.103048
F2_121 374 250 V121 -0.104354
F2_122 374 250 V122 -0.0107162
F2_123 374 250 V123 -0.025074
F2_124 374 250 V124 -0.0261891
F3_1 375 251 V1 -0.0250028
F3_2 375 251 V2 -0.00630367
F3_4 375 251 V4 0.00239238
F3_5 375 251 V5 -0.0238047
F3_6 375 251 V6 1.00429
F3_7 375 251 V7 -0.0223579
F3_8 375 251 V8 -0.00114155
F3_9 375 251 V9 0.000173684
F3_10 375 251 V10 0.0768225
F3_11 375 251 V11 0.00268399
F3_12 375 251 V12 0.13222
F3_13 375 251 V13 0.110948
F3_14 375 251 V14 0.144369
F3_15 375 251 V15 0.0838707
F3_16 375 251 V16 0.0615326
F3_17 375 251 V17 0.017636
F3_18 375 251 V18 0.0681355
F3_19 375 251 V19 0.041975
F3_20 375 251 V20 0.0720677
F3_21 375 251 V21 0.0534203
F3_22 375 251 V22 0.0758077
F3_23 375 251 V23 0.0119358
F3_24 375 251 V24 0.0621147
F3_25 375 251 V25 0.0624608
F3_26 375 251 V26 0.0625387
F3_27 375 251 V27 0.0224405
F3_28 375 251 V28 0.0676689
F3_29 375 251 V29 0.0674311
F3_30 375 251 V30 0.0673323
F3_31 375 251 V31 0.0434694
F3_32 375 251 V32 0.0723978
F3_33 375 251 V33 0.0726304
F3_34 375 251 V34 0.0726901
F3_35 375 251 V35 0.054339
F3_36 375 251 V36 0.0761606
F3_37 375 251 V37 0.0763644
F3_38 375 251 V38 0.0763707
F3_39 375 251 V39 0.0637366
F3_40 375 251 V40 0.00686935
F3_41 375 251 V41 0.0107648
F3_42 375 251 V42 0.0145632
F3_43 375 251 V43 -0.0278471
F3_44 375 251 V44 -0.214813
F3_45 375 251 V45 0.000787291
F3_46 375 251 V46 0.00642648
F3_47 375 251 V47 0.0112253
F3_48 375 251 V48 0.0150036
F3_49 375 251 V49 -0.199833
F3_50 375 251 V50 -0.0301747
F3_51 375 251 V51 -0.179947
F3_52 375 251 V52 -0.192224
F3_53 375 251 V53 -0.216941
F3_54 375 251 V54 -0.0303771
F3_55 375 251 V55 -0.0283391
F3_56 375 251 V56 0.0738345
F3_57 375 251 V57 0.00798279
F3_58 375 251 V58 0.135342
F3_59 375 251 V59 0.0192187
F3_60 375 251 V60 0.156741
F3_61 375 251 V61 0.03721
F3_62 375 251 V62 0.167788
F3_63 375 251 V63 0.000867612
F3_64 375 251 V64 0.0898846
F3_65 375 251 V65 0.105058
F3_66 375 251 V66 0.105451
F3_67 375 251 V67 0.00914186
F3_68 375 251 V68 0.138825
F3_69 375 251 V69 0.140598
F3_70 375 251 V70 0.140344
F3_71 375 251 V71 0.0209319
F3_72 375 251 V72 0.157841
F3_73 375 251 V73 0.158611
F3_74 375 251 V74 0.158695
F3_75 375 251 V75 0.0396917
F3_76 375 251 V76 0.168561
F3_77 375 251 V77 0.169049
F3_78 375 251 V78 0.169063
F3_79 375 251 V79 0.142751
F3_80 375 251 V80 0.00699034
F3_81 375 251 V81 0.0173917
F3_82 375 251 V82 0.0346919
F3_83 375 251 V83 0.000729771
F3_84 375 251 V84 0.0010771
F3_85 375 251 V85 0.00111541
F3_86 375 251 V86 0.00799872
F3_87 375 251 V87 0.00849419
F3_88 375 251 V88 0.0085433
F3_89 375 251 V89 0.0187954
F3_90 375 251 V90 0.0195383
F3_91 375 251 V91 0.0195068
F3_92 375 251 V92 0.0373278
F3_93 375 251 V93 0.0389983
F3_94 375 251 V94 0.0386706
F3_95 375 251 V95 0.00386879
F3_96 375 251 V96 0.134186
F3_97 375 251 V97 0.151551
F3_98 375 251 V98 0.160476
F3_99 375 251 V99 -0.00230753
F3_100 375 251 V100 0.137327
F3_101 375 251 V101 0.155514
F3_102 375 251 V102 0.164106
F3_103 375 251 V103 0.0415517
F3_104 375 251 V104 -0.00117721
F3_105 375 251 V105 0.108882
F3_106 375 251 V106 -0.00178656
F3_107 375 251 V107 -0.0104432
F3_108 375 251 V108 0.12255
F3_109 375 251 V109 0.140742
F3_110 375 251 V110 0.149812
F3_111 375 251 V111 0.10577
F3_112 375 251 V112 0.00119957
F3_113 375 251 V113 -0.0125167
F3_114 375 251 V114 -0.0178298
F3_115 375 251 V115 -0.0170991
F3_116 375 251 V116 -0.0117955
F3_117 375 251 V117 -0.00681188
F3_118 375 251 V118 -0.00123373
F3_119 375 251 V119 0.0278344
F3_120 375 251 V120 0.0325647
F3_121 375 251 V121 0.0329972
F3_122 375 251 V122 0.00311639
F3_123 375 251 V123 0.0072012
F3_124 375 251 V124 0.0075391
F4_1 376 252 V1 0.991438
F4_2 376 252 V2 0.883609
F4_3 376 252 V3 0.0329008
F4_5 376 252 V5 0.985193
F4_6 376 252 V6 0.0187152
F4_7 376 252 V7 0.979919
F4_8 376 252 V8 0.00406958
F4_9 376 252 V9 -0.000791069
F4_10 376 252 V10 -0.585871
F4_11 376 252 V11 -0.0103261
F4_12 376 252 V12 -0.708412
F4_13 376 252 V13 -0.653664
F4_14 376 252 V14 -0.742386
F4_15 376 252 V15 -0.599173
F4_16 376 252 V16 -0.227138
F4_17 376 252 V17 -0.127608
F4_18 376 252 V18 -0.245085
F4_19 376 252 V19 -0.176185
F4_20 376 252 V20 -0.256066
F4_21 376 252 V21 -0.205422
F4_22 376 252 V22 -0.266644
F4_23 376 252 V23 -0.0368087
F4_24 376 252 V24 -0.228692
F4_25 376 252 V25 -0.229543
F4_26 376 252 V26 -0.229704
F4_27 376 252 V27 -0.135086
F4_28 376 252 V28 -0.243841
F4_29 376 252 V29 -0.243176
F4_30 376 252 V30 -0.243031
F4_31 376 252 V31 -0.179659
F4_32 376 252 V32 -0.256987
F4_33 376 252 V33 -0.257562
F4_34 376 252 V34 -0.257651
F4_35 376 252 V35 -0.207724
F4_36 376 252 V36 -0.267627
F4_37 376 252 V37 -0.268143
F4_38 376 252 V38 -0.268198
F4_39 376 252 V39 -0.232915
F4_40 376 252 V40 -0.0194662
F4_41 376 252 V41 -0.0301828
F4_42 376 252 V42 -0.041458
F4_43 376 252 V43 0.0735235
F4_44 376 252 V44 0.81922
F4_45 376 252 V45 -0.00209058
F4_46 376 252 V46 -0.0183055
F4_47 376 252 V47 -0.0314441
F4_48 376 252 V48 -0.0426603
F4_49 376 252 V49 0.609878
F4_50 376 252 V50 0.0782707
F4_51 376 252 V51 0.440053
F4_52 376 252 V52 0.54174
F4_53 376 252 V53 0.82693
F4_54 376 252 V54 0.0787655
F4_55 376 252 V55 0.0745582
F4_56 376 252 V56 -0.489593
F4_57 376 252 V57 -0.0261043
F4_58 376 252 V58 -0.618658
F4_59 376 252 V59 -0.0663468
F4_60 376 252 V60 -0.664927
F4_61 376 252 V61 -0.1458
F4_62 376 252 V62 -0.693328
F4_63 376 252 V63 -0.00281998
F4_64 376 252 V64 -0.516264
F4_65 376 252 V65 -0.53143
F4_66 376 252 V66 -0.532849
F4_67 376 252 V67 -0.0300624
F4_68 376 252 V68 -0.624729
F4_69 376 252 V69 -0.627802
F4_70 376 252 V70 -0.628448
F4_71 376 252 V71 -0.0728849
F4_72 376 252 V72 -0.66742
F4_73 376 252 V73 -0.66909
F4_74 376 252 V74 -0.669355
F4_75 376 252 V75 -0.158437
F4_76 376 252 V76 -0.695285
F4_77 376 252 V77 -0.69645
F4_78 376 252 V78 -0.696529
F4_79 376 252 V79 -0.632923
F4_80 376 252 V80 -0.0246941
F4_81 376 252 V81 -0.0637994
F4_82 376 252 V82 -0.143837
F4_83 376 252 V83 -0.0023542
F4_84 376 252 V84 -0.00347469
F4_85 376 252 V85 -0.00372366
F4_86 376 252 V86 -0.0281177
F4_87 376 252 V87 -0.0297927
F4_88 376 252 V88 -0.0301291
F4_89 376 252 V89 -0.0688394
F4_90 376 252 V90 -0.0716478
F4_91 376 252 V91 -0.0719053
F4_92 376 252 V92 -0.156898
F4_93 376 252 V93 -0.16618
F4_94 376 252 V94 -0.165366
F4_95 376 252 V95 -0.0133843
F4_96 376 252 V96 -0.613306
F4_97 376 252 V97 -0.66062
F4_98 376 252 V98 -0.686008
F4_99 376 252 V99 0.00806786
F4_100 376 252 V100 -0.621654
F4_101 376 252 V101 -0.67192
F4_102 376 252 V102 -0.696965
F4_103 376 252 V103 -0.182079
F4_104 376 252 V104 0.00419957
F4_105 376 252 V105 -0.502612
F4_106 376 252 V106 0.00600926
F4_107 376 252 V107 0.037433
F4_108 376 252 V108 -0.53678
F4_109 376 252 V109 -0.586308
F4_110 376 252 V110 -0.61208
F4_111 376 252 V111 -0.496033
F4_112 376 252 V112 -0.0043344
F4_113 376 252 V113 0.0454845
F4_114 376 252 V114 0.0638671
F4_115 376 252 V115 0.061345
F4_116 376 252 V116 0.0314385
F4_117 376 252 V117 0.0183489
F4_118 376 252 V118 0.00328092
F4_119 376 252 V119 -0.073824
F4_120 376 252 V120 -0.0872453
F4_121 376 252 V121 -0.0883884
F4_122 376 252 V122 -0.00906087
F4_123 376 252 V123 -0.0212232
F4_124 376 252 V124 -0.0222031
F5_1 377 253 V1 0.938315
F5_2 377 253 V2 0.0874594
F5_3 377 253 V3 -0.0177243
F5_4 377 253 V4 0.0533398
F5_6 377 253 V6 -0.0202062
F5_7 377 253 V7 0.837737
F5_8 377 253 V8 0.00165211
F5_9 377 253 V9 -1.27329e-005
F5_10 377 253 V10 -0.153736
F5_11 377 253 V11 -0.0037034
F5_12 377 253 V12 -0.179769
F5_13 377 253 V13 -0.167461
F5_14 377 253 V14 -0.187967
F5_15 377 253 V15 -0.156306
F5_16 377 253 V16 -0.0437975
F5_17 377 253 V17 -0.0218038
F5_18 377 253 V18 -0.0481778
F5_19 377 253 V19 -0.0321308
F5_20 377 253 V20 -0.0508165
F5_21 377 253 V21 -0.0387083
F5_22 377 253 V22 -0.0534654
F5_23 377 253 V23 -0.00576514
F5_24 377 253 V24 -0.0442617
F5_25 377 253 V25 -0.0444674
F5_26 377 253 V26 -0.0444548
F5_27 377 253 V27 -0.0234164
F5_28 377 253 V28 -0.047856
F5_29 377 253 V29 -0.047687
F5_30 377 253 V30 -0.0476999
F5_31 377 253 V31 -0.032972
F5_32 377 253 V32 -0.0511102
F5_33 377 253 V33 -0.0512547
F5_34 377 253 V34 -0.0512359
F5_35 377 253 V35 -0.0392891
F5_36 377 253 V36 -0.0537735
F5_37 377 253 V37 -0.0539058
F5_38 377 253 V38 -0.0538846
F5_39 377 253 V39 -0.0452087
F5_40 377 253 V40 -0.00481543
F5_41 377 253 V41 -0.00734938
F5_42 377 253 V42 -0.0101807
F5_43 377 253 V43 0.0163406
F5_44 377 253 V44 0.154446
F5_45 377 253 V45 -0.000539204
F5_46 377 253 V46 -0.00453492
F5_47 377 253 V47 -0.00769197
F5_48 377 253 V48 -0.0105106
F5_49 377 253 V49 0.0917943
F5_50 377 253 V50 0.0173096
F5_51 377 253 V51 0.0651139
F5_52 377 253 V52 0.0796865
F5_53 377 253 V53 0.17264
F5_54 377 253 V54 0.017347
F5_55 377 253 V55 0.0165011
F5_56 377 253 V56 -0.146529
F5_57 377 253 V57 -0.00833592
F5_58 377 253 V58 -0.168039
F5_59 377 253 V59 -0.0232268
F5_60 377 253 V60 -0.177761
F5_61 377 253 V61 -0.106434
F5_62 377 253 V62 -0.184176
F5_63 377 253 V63 -0.000954907
F5_64 377 253 V64 -0.151343
F5_65 377 253 V65 -0.153437
F5_66 377 253 V66 -0.153249
F5_67 377 253 V67 -0.00980704
F5_68 377 253 V68 -0.169479
F5_69 377 253 V69 -0.170067
F5_70 377 253 V70 -0.170047
F5_71 377 253 V71 -0.0264599
F5_72 377 253 V72 -0.178462
F5_73 377 253 V73 -0.178826
F5_74 377 253 V74 -0.178808
F5_75 377 253 V75 -0.124832
F5_76 377 253 V76 -0.184747
F5_77 377 253 V77 -0.18502
F5_78 377 253 V78 -0.184973
F5_79 377 253 V79 -0.1709
F5_80 377 253 V80 -0.00872922
F5_81 377 253 V81 -0.0239597
F5_82 377 253 V82 -0.0739017
F5_83 377 253 V83 -0.000979097
F5_84 377 253 V84 -0.00136559
F5_85 377 253 V85 -0.00131402
F5_86 377 253 V86 -0.010249
F5_87 377 253 V87 -0.0108792
F5_88 377 253 V88 -0.0107713
F5_89 377 253 V89 -0.0270656
F5_90 377 253 V90 -0.0284945
F5_91 377 253 V91 -0.0276162
F5_92 377 253 V92 -0.0769568
F5_93 377 253 V93 -0.0833717
F5_94 377 253 V94 -0.0782457
F5_95 377 253 V95 -0.00492432
F5_96 377 253 V96 -0.166961
F5_97 377 253 V97 -0.178022
F5_98 377 253 V98 -0.184276
F5_99 377 253 V99 0.00252339
F5_100 377 253 V100 -0.168835
F5_101 377 253 V101 -0.180773
F5_102 377 253 V102 -0.187015
F5_103 377 253 V103 -0.0922421
F5_104 377 253 V104 0.00169423
F5_105 377 253 V105 -0.218681
F5_106 377 253 V106 0.00301773
F5_107 377 253 V107 0.0133189
F5_108 377 253 V108 -0.226079
F5_109 377 253 V109 -0.237649
F5_110 377 253 V110 -0.243998
F5_111 377 253 V111 -0.217226
F5_112 377 253 V112 -0.00178116
F5_113 377 253 V113 0.0173763
F5_114 377 253 V114 0.0237671
F5_115 377 253 V115 0.0229755
F5_116 377 253 V116 0.00725206
F5_117 377 253 V117 0.00428093
F5_118 377 253 V118 0.000782955
F5_119 377 253 V119 -0.0168184
F5_120 377 253 V120 -0.0200825
F5_121 377 253 V121 -0.0203833
F5_122 377 253 V122 -0.00223297
F5_123 377 253 V123 -0.00530625
F5_124 377 253 V124 -0.00557955
F6_1 378 254 V1 -0.0274455
F6_2 378 254 V2 -0.00764597
F6_3 378 254 V3 0.966593
F6_4 378 254 V4 0.0013098
F6_5 378 254 V5 -0.0261196
F6_7 378 254 V7 -0.0246361
F6_8 378 254 V8 -0.0012339
F6_9 378 254 V9 0.000205299
F6_10 378 254 V10 0.0880943
F6_11 378 254 V11 0.00293191
F6_12 378 254 V12 0.157278
F6_13 378 254 V13 0.132047
F6_14 378 254 V14 0.171292
F6_15 378 254 V15 0.0947636
F6_16 378 254 V16 0.0870941
F6_17 378 254 V17 0.0339999
F6_18 378 254 V18 0.0946758
F6_19 378 254 V19 0.0641255
F6_20 378 254 V20 0.0991903
F6_21 378 254 V21 0.0776593
F6_22 378 254 V22 0.103461
F6_23 378 254 V23 0.012444
F6_24 378 254 V24 0.0877427
F6_25 378 254 V25 0.0881385
F6_26 378 254 V26 0.0882396
F6_27 378 254 V27 0.0401448
F6_28 378 254 V28 0.0941464
F6_29 378 254 V29 0.0938761
F6_30 378 254 V30 0.0937542
F6_31 378 254 V31 0.0658806
F6_32 378 254 V32 0.0995524
F6_33 378 254 V33 0.0998147
F6_34 378 254 V34 0.0998913
F6_35 378 254 V35 0.0787147
F6_36 378 254 V36 0.103851
F6_37 378 254 V37 0.104081
F6_38 378 254 V38 0.104096
F6_39 378 254 V39 0.0896228
F6_40 378 254 V40 0.00789422
F6_41 378 254 V41 0.0123685
F6_42 378 254 V42 0.0167133
F6_43 378 254 V43 -0.0332525
F6_44 378 254 V44 -0.250165
F6_45 378 254 V45 0.000898943
F6_46 378 254 V46 0.00738849
F6_47 378 254 V47 0.0128874
F6_48 378 254 V48 0.0172104
F6_49 378 254 V49 -0.23376
F6_50 378 254 V50 -0.0361595
F6_51 378 254 V51 -0.213118
F6_52 378 254 V52 -0.225876
F6_53 378 254 V53 -0.252366
F6_54 378 254 V54 -0.0364788
F6_55 378 254 V55 -0.0339048
F6_56 378 254 V56 0.079009
F6_57 378 254 V57 0.00857736
F6_58 378 254 V58 0.170103
F6_59 378 254 V59 0.0206573
F6_60 378 254 V60 0.197121
F6_61 378 254 V61 0.0398533
F6_62 378 254 V62 0.210176
F6_63 378 254 V63 0.000941885
F6_64 378 254 V64 0.095279
F6_65 378 254 V65 0.110508
F6_66 378 254 V66 0.110861
F6_67 378 254 V67 0.00983
F6_68 378 254 V68 0.174322
F6_69 378 254 V69 0.176769
F6_70 378 254 V70 0.176734
F6_71 378 254 V71 0.0224975
F6_72 378 254 V72 0.198367
F6_73 378 254 V73 0.199282
F6_74 378 254 V74 0.199414
F6_75 378 254 V75 0.0424755
F6_76 378 254 V76 0.211043
F6_77 378 254 V77 0.211607
F6_78 378 254 V78 0.211643
F6_79 378 254 V79 0.179866
F6_80 378 254 V80 0.00763055
F6_81 378 254 V81 0.0189291
F6_82 378 254 V82 0.0375326
F6_83 378 254 V83 0.000782795
F6_84 378 254 V84 0.00116192
F6_85 378 254 V85 0.00121601
F6_86 378 254 V86 0.00870901
F6_87 378 254 V87 0.00924677
F6_88 378 254 V88 0.00931578
F6_89 378 254 V89 0.0204126
F6_90 378 254 V90 0.0212102
F6_91 378 254 V91 0.0212004
F6_92 378 254 V92 0.0402792
F6_93 378 254 V93 0.0420268
F6_94 378 254 V94 0.0417251
F6_95 378 254 V95 0.00421332